
     RDKit          3D

 24 25  0  0  0  0  0  0  0  0999 V2000
    3.2785    0.5941    0.0738 C   0  0  0  0  0  0  0  0  0  0  0  0
    2.1406   -0.2864   -0.0031 N   0  0  0  0  0  0  0  0  0  0  0  0
    2.1797   -1.6519   -0.1065 C   0  0  0  0  0  0  0  0  0  0  0  0
    0.9687   -2.1705   -0.1565 N   0  0  0  0  0  0  0  0  0  0  0  0
    0.1361   -1.0950   -0.0820 C   0  0  0  0  0  0  0  0  0  0  0  0
    0.8244    0.0762    0.0130 C   0  0  0  0  0  0  0  0  0  0  0  0
    0.1926    1.3459    0.1040 C   0  0  0  0  0  0  0  0  0  0  0  0
    0.8225    2.3959    0.1893 O   0  0  0  0  0  0  0  0  0  0  0  0
   -1.2025    1.2585    0.0851 N   0  0  0  0  0  0  0  0  0  0  0  0
   -1.9510    0.0665   -0.0120 C   0  0  0  0  0  0  0  0  0  0  0  0
   -3.1854    0.0918   -0.0208 O   0  0  0  0  0  0  0  0  0  0  0  0
   -1.2372   -1.1294   -0.0966 N   0  0  0  0  0  0  0  0  0  0  0  0
   -1.9317   -2.3997   -0.1993 C   0  0  0  0  0  0  0  0  0  0  0  0
   -1.9654    2.4883    0.1720 C   0  0  0  0  0  0  0  0  0  0  0  0
    4.1985    0.0050    0.0370 H   0  0  0  0  0  0  0  0  0  0  0  0
    3.2462    1.2798   -0.7766 H   0  0  0  0  0  0  0  0  0  0  0  0
    3.2305    1.1434    1.0173 H   0  0  0  0  0  0  0  0  0  0  0  0
    3.1051   -2.2132   -0.1411 H   0  0  0  0  0  0  0  0  0  0  0  0
   -1.6383   -2.8932   -1.1312 H   0  0  0  0  0  0  0  0  0  0  0  0
   -1.6538   -3.0288    0.6524 H   0  0  0  0  0  0  0  0  0  0  0  0
   -3.0174   -2.2723   -0.1990 H   0  0  0  0  0  0  0  0  0  0  0  0
   -2.6133    2.4434    1.0535 H   0  0  0  0  0  0  0  0  0  0  0  0
   -2.5979    2.5780   -0.7174 H   0  0  0  0  0  0  0  0  0  0  0  0
   -1.3294    3.3738    0.2448 H   0  0  0  0  0  0  0  0  0  0  0  0
  1  2  1  0
  2  3  1  0
  3  4  2  0
  4  5  1  0
  5  6  2  0
  6  7  1  0
  7  8  2  0
  7  9  1  0
  9 10  1  0
 10 11  2  0
 10 12  1  0
 12 13  1  0
  9 14  1  0
  6  2  1  0
 12  5  1  0
  1 15  1  0
  1 16  1  0
  1 17  1  0
  3 18  1  0
 13 19  1  0
 13 20  1  0
 13 21  1  0
 14 22  1  0
 14 23  1  0
 14 24  1  0
M  END
$$$$

     RDKit          3D

 24 25  0  0  0  0  0  0  0  0999 V2000
    3.2968   -0.4877    0.0180 C   0  0  0  0  0  0  0  0  0  0  0  0
    1.9359   -0.9561   -0.0499 N   0  0  0  0  0  0  0  0  0  0  0  0
    1.5342   -2.2598   -0.1750 C   0  0  0  0  0  0  0  0  0  0  0  0
    0.2202   -2.3626   -0.2090 N   0  0  0  0  0  0  0  0  0  0  0  0
   -0.2229   -1.0790   -0.1015 C   0  0  0  0  0  0  0  0  0  0  0  0
    0.8055   -0.1919   -0.0022 C   0  0  0  0  0  0  0  0  0  0  0  0
    0.6149    1.2110    0.1208 C   0  0  0  0  0  0  0  0  0  0  0  0
    1.5490    2.0023    0.2097 O   0  0  0  0  0  0  0  0  0  0  0  0
   -0.7348    1.5750    0.1283 N   0  0  0  0  0  0  0  0  0  0  0  0
   -1.8269    0.6874    0.0277 C   0  0  0  0  0  0  0  0  0  0  0  0
   -2.9882    1.1066    0.0436 O   0  0  0  0  0  0  0  0  0  0  0  0
   -1.5350   -0.6719   -0.0895 N   0  0  0  0  0  0  0  0  0  0  0  0
   -2.6011   -1.6508   -0.1978 C   0  0  0  0  0  0  0  0  0  0  0  0
   -1.0624    2.9822    0.2490 C   0  0  0  0  0  0  0  0  0  0  0  0
    3.9790   -1.3393   -0.0459 H   0  0  0  0  0  0  0  0  0  0  0  0
    3.4740    0.1897   -0.8209 H   0  0  0  0  0  0  0  0  0  0  0  0
    3.4402    0.0282    0.9706 H   0  0  0  0  0  0  0  0  0  0  0  0
    2.2305   -3.0869   -0.2365 H   0  0  0  0  0  0  0  0  0  0  0  0
   -2.5275   -2.3534    0.6383 H   0  0  0  0  0  0  0  0  0  0  0  0
   -3.5887   -1.1828   -0.1741 H   0  0  0  0  0  0  0  0  0  0  0  0
   -2.4941   -2.1926   -1.1429 H   0  0  0  0  0  0  0  0  0  0  0  0
   -1.6784    3.1285    1.1424 H   0  0  0  0  0  0  0  0  0  0  0  0
   -1.6450    3.2881   -0.6262 H   0  0  0  0  0  0  0  0  0  0  0  0
   -0.1753    3.6159    0.3229 H   0  0  0  0  0  0  0  0  0  0  0  0
  1  2  1  0
  2  3  1  0
  3  4  2  0
  4  5  1  0
  5  6  2  0
  6  7  1  0
  7  8  2  0
  7  9  1  0
  9 10  1  0
 10 11  2  0
 10 12  1  0
 12 13  1  0
  9 14  1  0
  6  2  1  0
 12  5  1  0
  1 15  1  0
  1 16  1  0
  1 17  1  0
  3 18  1  0
 13 19  1  0
 13 20  1  0
 13 21  1  0
 14 22  1  0
 14 23  1  0
 14 24  1  0
M  END
$$$$

     RDKit          3D

 24 25  0  0  0  0  0  0  0  0999 V2000
    2.8784   -1.6707    0.1747 C   0  0  0  0  0  0  0  0  0  0  0  0
    2.1021   -0.4570    0.1913 N   0  0  0  0  0  0  0  0  0  0  0  0
    2.5898    0.8133    0.3504 C   0  0  0  0  0  0  0  0  0  0  0  0
    1.6254    1.7117    0.3201 N   0  0  0  0  0  0  0  0  0  0  0  0
    0.4893    0.9831    0.1354 C   0  0  0  0  0  0  0  0  0  0  0  0
    0.7480   -0.3513    0.0524 C   0  0  0  0  0  0  0  0  0  0  0  0
   -0.2639   -1.3304   -0.1397 C   0  0  0  0  0  0  0  0  0  0  0  0
   -0.0200   -2.5311   -0.2133 O   0  0  0  0  0  0  0  0  0  0  0  0
   -1.5435   -0.7750   -0.2329 N   0  0  0  0  0  0  0  0  0  0  0  0
   -1.8516    0.5994   -0.1520 C   0  0  0  0  0  0  0  0  0  0  0  0
   -3.0177    0.9944   -0.2465 O   0  0  0  0  0  0  0  0  0  0  0  0
   -0.7872    1.4813    0.0377 N   0  0  0  0  0  0  0  0  0  0  0  0
   -1.0190    2.9111    0.1315 C   0  0  0  0  0  0  0  0  0  0  0  0
   -2.6651   -1.6722   -0.4301 C   0  0  0  0  0  0  0  0  0  0  0  0
    2.5395   -2.3119    0.9922 H   0  0  0  0  0  0  0  0  0  0  0  0
    2.7341   -2.1631   -0.7902 H   0  0  0  0  0  0  0  0  0  0  0  0
    3.9357   -1.4291    0.3104 H   0  0  0  0  0  0  0  0  0  0  0  0
    3.6431    1.0270    0.4831 H   0  0  0  0  0  0  0  0  0  0  0  0
   -2.0793    3.1596    0.0368 H   0  0  0  0  0  0  0  0  0  0  0  0
   -0.4692    3.4155   -0.6695 H   0  0  0  0  0  0  0  0  0  0  0  0
   -0.6620    3.2680    1.1028 H   0  0  0  0  0  0  0  0  0  0  0  0
   -3.1763   -1.4032   -1.3603 H   0  0  0  0  0  0  0  0  0  0  0  0
   -3.3694   -1.5488    0.3992 H   0  0  0  0  0  0  0  0  0  0  0  0
   -2.3612   -2.7205   -0.4835 H   0  0  0  0  0  0  0  0  0  0  0  0
  1  2  1  0
  2  3  1  0
  3  4  2  0
  4  5  1  0
  5  6  2  0
  6  7  1  0
  7  8  2  0
  7  9  1  0
  9 10  1  0
 10 11  2  0
 10 12  1  0
 12 13  1  0
  9 14  1  0
  6  2  1  0
 12  5  1  0
  1 15  1  0
  1 16  1  0
  1 17  1  0
  3 18  1  0
 13 19  1  0
 13 20  1  0
 13 21  1  0
 14 22  1  0
 14 23  1  0
 14 24  1  0
M  END
$$$$

     RDKit          3D

 24 25  0  0  0  0  0  0  0  0999 V2000
    3.2508   -0.7343   -0.0562 C   0  0  0  0  0  0  0  0  0  0  0  0
    2.1500    0.1936    0.0022 N   0  0  0  0  0  0  0  0  0  0  0  0
    2.2448    1.5547    0.1254 C   0  0  0  0  0  0  0  0  0  0  0  0
    1.0562    2.1245    0.1500 N   0  0  0  0  0  0  0  0  0  0  0  0
    0.1806    1.0870    0.0383 C   0  0  0  0  0  0  0  0  0  0  0  0
    0.8204   -0.1116   -0.0543 C   0  0  0  0  0  0  0  0  0  0  0  0
    0.1375   -1.3515   -0.1797 C   0  0  0  0  0  0  0  0  0  0  0  0
    0.7239   -2.4266   -0.2624 O   0  0  0  0  0  0  0  0  0  0  0  0
   -1.2526   -1.2042   -0.1971 N   0  0  0  0  0  0  0  0  0  0  0  0
   -1.9516    0.0177   -0.1037 C   0  0  0  0  0  0  0  0  0  0  0  0
   -3.1858    0.0457   -0.1284 O   0  0  0  0  0  0  0  0  0  0  0  0
   -1.1898    1.1805    0.0165 N   0  0  0  0  0  0  0  0  0  0  0  0
   -1.8319    2.4783    0.1179 C   0  0  0  0  0  0  0  0  0  0  0  0
   -2.0648   -2.3986   -0.3214 C   0  0  0  0  0  0  0  0  0  0  0  0
    4.1938   -0.1860    0.0133 H   0  0  0  0  0  0  0  0  0  0  0  0
    3.1658   -1.4285    0.7835 H   0  0  0  0  0  0  0  0  0  0  0  0
    3.2052   -1.2691   -1.0081 H   0  0  0  0  0  0  0  0  0  0  0  0
    3.1921    2.0750    0.1925 H   0  0  0  0  0  0  0  0  0  0  0  0
   -1.5431    2.9468    1.0641 H   0  0  0  0  0  0  0  0  0  0  0  0
   -2.9216    2.3979    0.0869 H   0  0  0  0  0  0  0  0  0  0  0  0
   -1.5040    3.1054   -0.7172 H   0  0  0  0  0  0  0  0  0  0  0  0
   -2.7247   -2.4721    0.5493 H   0  0  0  0  0  0  0  0  0  0  0  0
   -1.4655   -3.3099   -0.3893 H   0  0  0  0  0  0  0  0  0  0  0  0
   -2.6858   -2.3147   -1.2193 H   0  0  0  0  0  0  0  0  0  0  0  0
  1  2  1  0
  2  3  1  0
  3  4  2  0
  4  5  1  0
  5  6  2  0
  6  7  1  0
  7  8  2  0
  7  9  1  0
  9 10  1  0
 10 11  2  0
 10 12  1  0
 12 13  1  0
  9 14  1  0
  6  2  1  0
 12  5  1  0
  1 15  1  0
  1 16  1  0
  1 17  1  0
  3 18  1  0
 13 19  1  0
 13 20  1  0
 13 21  1  0
 14 22  1  0
 14 23  1  0
 14 24  1  0
M  END
$$$$

     RDKit          3D

 24 25  0  0  0  0  0  0  0  0999 V2000
    3.2867    0.1909   -0.5176 C   0  0  0  0  0  0  0  0  0  0  0  0
    2.0632   -0.5465   -0.3301 N   0  0  0  0  0  0  0  0  0  0  0  0
    1.9338   -1.9102   -0.3205 C   0  0  0  0  0  0  0  0  0  0  0  0
    0.6829   -2.2786   -0.1259 N   0  0  0  0  0  0  0  0  0  0  0  0
   -0.0011   -1.1064   -0.0086 C   0  0  0  0  0  0  0  0  0  0  0  0
    0.8175   -0.0249   -0.1293 C   0  0  0  0  0  0  0  0  0  0  0  0
    0.3541    1.3160   -0.0455 C   0  0  0  0  0  0  0  0  0  0  0  0
    1.1005    2.2841   -0.1557 O   0  0  0  0  0  0  0  0  0  0  0  0
   -1.0242    1.3994    0.1728 N   0  0  0  0  0  0  0  0  0  0  0  0
   -1.9043    0.3044    0.3032 C   0  0  0  0  0  0  0  0  0  0  0  0
   -3.1113    0.4804    0.4952 O   0  0  0  0  0  0  0  0  0  0  0  0
   -1.3515   -0.9730    0.2057 N   0  0  0  0  0  0  0  0  0  0  0  0
   -2.1884   -2.1525    0.3286 C   0  0  0  0  0  0  0  0  0  0  0  0
   -1.6210    2.7165    0.2775 C   0  0  0  0  0  0  0  0  0  0  0  0
    4.1162   -0.5077   -0.6542 H   0  0  0  0  0  0  0  0  0  0  0  0
    3.4636    0.8033    0.3701 H   0  0  0  0  0  0  0  0  0  0  0  0
    3.1828    0.8175   -1.4069 H   0  0  0  0  0  0  0  0  0  0  0  0
    2.7720   -2.5819   -0.4582 H   0  0  0  0  0  0  0  0  0  0  0  0
   -2.1167   -2.7390   -0.5929 H   0  0  0  0  0  0  0  0  0  0  0  0
   -1.8378   -2.7529    1.1740 H   0  0  0  0  0  0  0  0  0  0  0  0
   -3.2370   -1.8931    0.4961 H   0  0  0  0  0  0  0  0  0  0  0  0
   -2.1070    2.8101    1.2542 H   0  0  0  0  0  0  0  0  0  0  0  0
   -2.3845    2.8238   -0.5000 H   0  0  0  0  0  0  0  0  0  0  0  0
   -0.8887    3.5202    0.1679 H   0  0  0  0  0  0  0  0  0  0  0  0
  1  2  1  0
  2  3  1  0
  3  4  2  0
  4  5  1  0
  5  6  2  0
  6  7  1  0
  7  8  2  0
  7  9  1  0
  9 10  1  0
 10 11  2  0
 10 12  1  0
 12 13  1  0
  9 14  1  0
  6  2  1  0
 12  5  1  0
  1 15  1  0
  1 16  1  0
  1 17  1  0
  3 18  1  0
 13 19  1  0
 13 20  1  0
 13 21  1  0
 14 22  1  0
 14 23  1  0
 14 24  1  0
M  END
$$$$

     RDKit          3D

 24 25  0  0  0  0  0  0  0  0999 V2000
    3.1491   -0.9535   -0.5302 C   0  0  0  0  0  0  0  0  0  0  0  0
    2.1168    0.0463   -0.4257 N   0  0  0  0  0  0  0  0  0  0  0  0
    2.2779    1.3963   -0.5940 C   0  0  0  0  0  0  0  0  0  0  0  0
    1.1416    2.0452   -0.4335 N   0  0  0  0  0  0  0  0  0  0  0  0
    0.2315    1.0710   -0.1541 C   0  0  0  0  0  0  0  0  0  0  0  0
    0.7985   -0.1671   -0.1419 C   0  0  0  0  0  0  0  0  0  0  0  0
    0.0670   -1.3563    0.1236 C   0  0  0  0  0  0  0  0  0  0  0  0
    0.5878   -2.4677    0.1321 O   0  0  0  0  0  0  0  0  0  0  0  0
   -1.2879   -1.1147    0.3687 N   0  0  0  0  0  0  0  0  0  0  0  0
   -1.9118    0.1508    0.3651 C   0  0  0  0  0  0  0  0  0  0  0  0
   -3.1199    0.2628    0.5940 O   0  0  0  0  0  0  0  0  0  0  0  0
   -1.1069    1.2576    0.0933 N   0  0  0  0  0  0  0  0  0  0  0  0
   -1.6710    2.5948    0.0705 C   0  0  0  0  0  0  0  0  0  0  0  0
   -2.1438   -2.2496    0.6535 C   0  0  0  0  0  0  0  0  0  0  0  0
    2.8797   -1.6500   -1.3279 H   0  0  0  0  0  0  0  0  0  0  0  0
    4.1008   -0.4714   -0.7681 H   0  0  0  0  0  0  0  0  0  0  0  0
    3.2289   -1.4728    0.4281 H   0  0  0  0  0  0  0  0  0  0  0  0
    3.2324    1.8502   -0.8297 H   0  0  0  0  0  0  0  0  0  0  0  0
   -2.7430    2.5890    0.2844 H   0  0  0  0  0  0  0  0  0  0  0  0
   -1.1677    3.2078    0.8248 H   0  0  0  0  0  0  0  0  0  0  0  0
   -1.5151    3.0315   -0.9210 H   0  0  0  0  0  0  0  0  0  0  0  0
   -1.6021   -3.1986    0.6418 H   0  0  0  0  0  0  0  0  0  0  0  0
   -2.9435   -2.2883   -0.0935 H   0  0  0  0  0  0  0  0  0  0  0  0
   -2.5990   -2.1132    1.6400 H   0  0  0  0  0  0  0  0  0  0  0  0
  1  2  1  0
  2  3  1  0
  3  4  2  0
  4  5  1  0
  5  6  2  0
  6  7  1  0
  7  8  2  0
  7  9  1  0
  9 10  1  0
 10 11  2  0
 10 12  1  0
 12 13  1  0
  9 14  1  0
  6  2  1  0
 12  5  1  0
  1 15  1  0
  1 16  1  0
  1 17  1  0
  3 18  1  0
 13 19  1  0
 13 20  1  0
 13 21  1  0
 14 22  1  0
 14 23  1  0
 14 24  1  0
M  END
$$$$

     RDKit          3D

 24 25  0  0  0  0  0  0  0  0999 V2000
    2.7673   -1.8566   -0.0441 C   0  0  0  0  0  0  0  0  0  0  0  0
    2.0659   -0.6048   -0.1751 N   0  0  0  0  0  0  0  0  0  0  0  0
    2.6260    0.6092   -0.4734 C   0  0  0  0  0  0  0  0  0  0  0  0
    1.7187    1.5645   -0.5220 N   0  0  0  0  0  0  0  0  0  0  0  0
    0.5449    0.9314   -0.2446 C   0  0  0  0  0  0  0  0  0  0  0  0
    0.7240   -0.4009   -0.0268 C   0  0  0  0  0  0  0  0  0  0  0  0
   -0.3409   -1.2898    0.2820 C   0  0  0  0  0  0  0  0  0  0  0  0
   -0.1687   -2.4894    0.4764 O   0  0  0  0  0  0  0  0  0  0  0  0
   -1.5820   -0.6487    0.3369 N   0  0  0  0  0  0  0  0  0  0  0  0
   -1.8081    0.7265    0.1174 C   0  0  0  0  0  0  0  0  0  0  0  0
   -2.9459    1.2011    0.1874 O   0  0  0  0  0  0  0  0  0  0  0  0
   -0.6966    1.5159   -0.1795 N   0  0  0  0  0  0  0  0  0  0  0  0
   -0.8434    2.9400   -0.4189 C   0  0  0  0  0  0  0  0  0  0  0  0
   -2.7514   -1.4489    0.6438 C   0  0  0  0  0  0  0  0  0  0  0  0
    2.6146   -2.2369    0.9689 H   0  0  0  0  0  0  0  0  0  0  0  0
    3.8342   -1.6968   -0.2205 H   0  0  0  0  0  0  0  0  0  0  0  0
    2.3724   -2.5561   -0.7850 H   0  0  0  0  0  0  0  0  0  0  0  0
    3.6871    0.7418   -0.6441 H   0  0  0  0  0  0  0  0  0  0  0  0
   -0.2442    3.4893    0.3142 H   0  0  0  0  0  0  0  0  0  0  0  0
   -0.4897    3.1707   -1.4288 H   0  0  0  0  0  0  0  0  0  0  0  0
   -1.8839    3.2632   -0.3314 H   0  0  0  0  0  0  0  0  0  0  0  0
   -3.4635   -1.3701   -0.1843 H   0  0  0  0  0  0  0  0  0  0  0  0
   -3.2267   -1.0523    1.5471 H   0  0  0  0  0  0  0  0  0  0  0  0
   -2.5101   -2.5025    0.8042 H   0  0  0  0  0  0  0  0  0  0  0  0
  1  2  1  0
  2  3  1  0
  3  4  2  0
  4  5  1  0
  5  6  2  0
  6  7  1  0
  7  8  2  0
  7  9  1  0
  9 10  1  0
 10 11  2  0
 10 12  1  0
 12 13  1  0
  9 14  1  0
  6  2  1  0
 12  5  1  0
  1 15  1  0
  1 16  1  0
  1 17  1  0
  3 18  1  0
 13 19  1  0
 13 20  1  0
 13 21  1  0
 14 22  1  0
 14 23  1  0
 14 24  1  0
M  END
$$$$

     RDKit          3D

 24 25  0  0  0  0  0  0  0  0999 V2000
    3.2580   -0.5133   -0.5198 C   0  0  0  0  0  0  0  0  0  0  0  0
    2.1246    0.3318   -0.2419 N   0  0  0  0  0  0  0  0  0  0  0  0
    2.1581    1.6832   -0.0199 C   0  0  0  0  0  0  0  0  0  0  0  0
    0.9535    2.1688    0.2065 N   0  0  0  0  0  0  0  0  0  0  0  0
    0.1309    1.0861    0.1245 C   0  0  0  0  0  0  0  0  0  0  0  0
    0.8190   -0.0566   -0.1495 C   0  0  0  0  0  0  0  0  0  0  0  0
    0.1965   -1.3268   -0.2870 C   0  0  0  0  0  0  0  0  0  0  0  0
    0.8261   -2.3510   -0.5342 O   0  0  0  0  0  0  0  0  0  0  0  0
   -1.1892   -1.2720   -0.1109 N   0  0  0  0  0  0  0  0  0  0  0  0
   -1.9372   -0.1100    0.1735 C   0  0  0  0  0  0  0  0  0  0  0  0
   -3.1629   -0.1631    0.3123 O   0  0  0  0  0  0  0  0  0  0  0  0
   -1.2330    1.0890    0.2893 N   0  0  0  0  0  0  0  0  0  0  0  0
   -1.9277    2.3297    0.5804 C   0  0  0  0  0  0  0  0  0  0  0  0
   -1.9420   -2.5056   -0.2266 C   0  0  0  0  0  0  0  0  0  0  0  0
    4.1693    0.0903   -0.5287 H   0  0  0  0  0  0  0  0  0  0  0  0
    3.3267   -1.2722    0.2635 H   0  0  0  0  0  0  0  0  0  0  0  0
    3.1144   -0.9775   -1.4986 H   0  0  0  0  0  0  0  0  0  0  0  0
    3.0749    2.2594   -0.0339 H   0  0  0  0  0  0  0  0  0  0  0  0
   -1.5404    2.7450    1.5162 H   0  0  0  0  0  0  0  0  0  0  0  0
   -3.0053    2.1790    0.6854 H   0  0  0  0  0  0  0  0  0  0  0  0
   -1.7519    3.0376   -0.2357 H   0  0  0  0  0  0  0  0  0  0  0  0
   -2.4731   -2.6877    0.7136 H   0  0  0  0  0  0  0  0  0  0  0  0
   -2.6824   -2.3969   -1.0260 H   0  0  0  0  0  0  0  0  0  0  0  0
   -1.3069   -3.3671   -0.4470 H   0  0  0  0  0  0  0  0  0  0  0  0
  1  2  1  0
  2  3  1  0
  3  4  2  0
  4  5  1  0
  5  6  2  0
  6  7  1  0
  7  8  2  0
  7  9  1  0
  9 10  1  0
 10 11  2  0
 10 12  1  0
 12 13  1  0
  9 14  1  0
  6  2  1  0
 12  5  1  0
  1 15  1  0
  1 16  1  0
  1 17  1  0
  3 18  1  0
 13 19  1  0
 13 20  1  0
 13 21  1  0
 14 22  1  0
 14 23  1  0
 14 24  1  0
M  END
$$$$

     RDKit          3D

 24 25  0  0  0  0  0  0  0  0999 V2000
    3.1575   -1.0629   -0.0387 C   0  0  0  0  0  0  0  0  0  0  0  0
    2.1593   -0.0304    0.0777 N   0  0  0  0  0  0  0  0  0  0  0  0
    2.3957    1.3075    0.2529 C   0  0  0  0  0  0  0  0  0  0  0  0
    1.2726    1.9946    0.3231 N   0  0  0  0  0  0  0  0  0  0  0  0
    0.2932    1.0577    0.1874 C   0  0  0  0  0  0  0  0  0  0  0  0
    0.8046   -0.1952    0.0349 C   0  0  0  0  0  0  0  0  0  0  0  0
   -0.0043   -1.3524   -0.1263 C   0  0  0  0  0  0  0  0  0  0  0  0
    0.4668   -2.4776   -0.2630 O   0  0  0  0  0  0  0  0  0  0  0  0
   -1.3719   -1.0630   -0.1110 N   0  0  0  0  0  0  0  0  0  0  0  0
   -1.9398    0.2192    0.0443 C   0  0  0  0  0  0  0  0  0  0  0  0
   -3.1648    0.3743    0.0446 O   0  0  0  0  0  0  0  0  0  0  0  0
   -1.0605    1.2918    0.1958 N   0  0  0  0  0  0  0  0  0  0  0  0
   -1.5637    2.6432    0.3610 C   0  0  0  0  0  0  0  0  0  0  0  0
   -2.3047   -2.1618   -0.2667 C   0  0  0  0  0  0  0  0  0  0  0  0
    3.0141   -1.7790    0.7742 H   0  0  0  0  0  0  0  0  0  0  0  0
    4.1530   -0.6174    0.0343 H   0  0  0  0  0  0  0  0  0  0  0  0
    3.0427   -1.5502   -1.0101 H   0  0  0  0  0  0  0  0  0  0  0  0
    3.3925    1.7249    0.3223 H   0  0  0  0  0  0  0  0  0  0  0  0
   -1.2136    3.0403    1.3191 H   0  0  0  0  0  0  0  0  0  0  0  0
   -1.1859    3.2674   -0.4550 H   0  0  0  0  0  0  0  0  0  0  0  0
   -2.6562    2.6761    0.3482 H   0  0  0  0  0  0  0  0  0  0  0  0
   -2.9273   -1.9776   -1.1484 H   0  0  0  0  0  0  0  0  0  0  0  0
   -1.8037   -3.1260   -0.3823 H   0  0  0  0  0  0  0  0  0  0  0  0
   -2.9554   -2.2034    0.6130 H   0  0  0  0  0  0  0  0  0  0  0  0
  1  2  1  0
  2  3  1  0
  3  4  2  0
  4  5  1  0
  5  6  2  0
  6  7  1  0
  7  8  2  0
  7  9  1  0
  9 10  1  0
 10 11  2  0
 10 12  1  0
 12 13  1  0
  9 14  1  0
  6  2  1  0
 12  5  1  0
  1 15  1  0
  1 16  1  0
  1 17  1  0
  3 18  1  0
 13 19  1  0
 13 20  1  0
 13 21  1  0
 14 22  1  0
 14 23  1  0
 14 24  1  0
M  END
$$$$

     RDKit          3D

 24 25  0  0  0  0  0  0  0  0999 V2000
    3.3315    0.0172    0.0898 C   0  0  0  0  0  0  0  0  0  0  0  0
    2.0584   -0.6536    0.0172 N   0  0  0  0  0  0  0  0  0  0  0  0
    1.8603   -2.0066   -0.0660 C   0  0  0  0  0  0  0  0  0  0  0  0
    0.5778   -2.3079   -0.1176 N   0  0  0  0  0  0  0  0  0  0  0  0
   -0.0557   -1.1032   -0.0651 C   0  0  0  0  0  0  0  0  0  0  0  0
    0.8250   -0.0679    0.0180 C   0  0  0  0  0  0  0  0  0  0  0  0
    0.4229    1.2935    0.0857 C   0  0  0  0  0  0  0  0  0  0  0  0
    1.2251    2.2194    0.1605 O   0  0  0  0  0  0  0  0  0  0  0  0
   -0.9661    1.4493    0.0577 N   0  0  0  0  0  0  0  0  0  0  0  0
   -1.9097    0.4039   -0.0276 C   0  0  0  0  0  0  0  0  0  0  0  0
   -3.1210    0.6429   -0.0461 O   0  0  0  0  0  0  0  0  0  0  0  0
   -1.4140   -0.8989   -0.0895 N   0  0  0  0  0  0  0  0  0  0  0  0
   -2.3181   -2.0309   -0.1787 C   0  0  0  0  0  0  0  0  0  0  0  0
   -1.5043    2.7940    0.1208 C   0  0  0  0  0  0  0  0  0  0  0  0
    3.3750    0.5811    1.0248 H   0  0  0  0  0  0  0  0  0  0  0  0
    3.4228    0.6846   -0.7707 H   0  0  0  0  0  0  0  0  0  0  0  0
    4.1353   -0.7231    0.0685 H   0  0  0  0  0  0  0  0  0  0  0  0
    2.6743   -2.7205   -0.0854 H   0  0  0  0  0  0  0  0  0  0  0  0
   -2.1580   -2.6850    0.6843 H   0  0  0  0  0  0  0  0  0  0  0  0
   -2.1101   -2.5826   -1.1010 H   0  0  0  0  0  0  0  0  0  0  0  0
   -3.3651   -1.7170   -0.1888 H   0  0  0  0  0  0  0  0  0  0  0  0
   -2.1074    2.9781   -0.7743 H   0  0  0  0  0  0  0  0  0  0  0  0
   -2.1543    2.8761    0.9982 H   0  0  0  0  0  0  0  0  0  0  0  0
   -0.7245    3.5568    0.1853 H   0  0  0  0  0  0  0  0  0  0  0  0
  1  2  1  0
  2  3  1  0
  3  4  2  0
  4  5  1  0
  5  6  2  0
  6  7  1  0
  7  8  2  0
  7  9  1  0
  9 10  1  0
 10 11  2  0
 10 12  1  0
 12 13  1  0
  9 14  1  0
  6  2  1  0
 12  5  1  0
  1 15  1  0
  1 16  1  0
  1 17  1  0
  3 18  1  0
 13 19  1  0
 13 20  1  0
 13 21  1  0
 14 22  1  0
 14 23  1  0
 14 24  1  0
M  END
$$$$
