caffeine_ConfGF_conf_0
     RDKit          3D

 24 25  0  0  0  0  0  0  0  0999 V2000
  -12.6957   -1.3017   -7.9805 C   0  0  0  0  0  0  0  0  0  0  0  0
  -12.8842   -0.2014   -7.0652 N   0  0  0  0  0  0  0  0  0  0  0  0
  -13.1976   -0.2832   -5.7300 C   0  0  0  0  0  0  0  0  0  0  0  0
  -12.4202    0.5854   -4.9993 N   0  0  0  0  0  0  0  0  0  0  0  0
  -11.7519    1.4223   -5.7888 C   0  0  0  0  0  0  0  0  0  0  0  0
  -12.2252    1.0847   -7.2377 C   0  0  0  0  0  0  0  0  0  0  0  0
  -11.0432    1.0272   -8.1929 C   0  0  0  0  0  0  0  0  0  0  0  0
  -10.8582    1.6247   -9.1572 O   0  0  0  0  0  0  0  0  0  0  0  0
   -9.8491    0.1401   -7.7089 N   0  0  0  0  0  0  0  0  0  0  0  0
   -9.6000    0.1364   -6.2201 C   0  0  0  0  0  0  0  0  0  0  0  0
   -9.1117   -0.7513   -5.7306 O   0  0  0  0  0  0  0  0  0  0  0  0
  -10.2549    1.2418   -5.5372 N   0  0  0  0  0  0  0  0  0  0  0  0
   -9.7665    1.7431   -4.3690 C   0  0  0  0  0  0  0  0  0  0  0  0
   -9.3684   -0.8471   -8.5513 C   0  0  0  0  0  0  0  0  0  0  0  0
  -12.7758   -2.2192   -7.4494 H   0  0  0  0  0  0  0  0  0  0  0  0
  -11.6530   -1.2116   -8.4395 H   0  0  0  0  0  0  0  0  0  0  0  0
  -13.3683   -1.1714   -8.7901 H   0  0  0  0  0  0  0  0  0  0  0  0
  -13.4524   -1.2218   -5.3162 H   0  0  0  0  0  0  0  0  0  0  0  0
   -9.2833    2.7449   -4.5587 H   0  0  0  0  0  0  0  0  0  0  0  0
  -10.5550    1.9440   -3.6522 H   0  0  0  0  0  0  0  0  0  0  0  0
   -9.0432    1.1152   -3.8870 H   0  0  0  0  0  0  0  0  0  0  0  0
   -9.0528   -1.6960   -7.9562 H   0  0  0  0  0  0  0  0  0  0  0  0
  -10.2249   -1.1957   -9.1814 H   0  0  0  0  0  0  0  0  0  0  0  0
   -8.5390   -0.4622   -9.1351 H   0  0  0  0  0  0  0  0  0  0  0  0
  1  2  1  0
  2  3  1  0
  3  4  2  0
  4  5  1  0
  5  6  2  0
  6  7  1  0
  7  8  2  0
  7  9  1  0
  9 10  1  0
 10 11  2  0
 10 12  1  0
 12 13  1  0
  9 14  1  0
  6  2  1  0
 12  5  1  0
  1 15  1  0
  1 16  1  0
  1 17  1  0
  3 18  1  0
 13 19  1  0
 13 20  1  0
 13 21  1  0
 14 22  1  0
 14 23  1  0
 14 24  1  0
M  END
$$$$
caffeine_ConfGF_conf_1
     RDKit          3D

 24 25  0  0  0  0  0  0  0  0999 V2000
  -17.0121   -3.9725   10.9442 C   0  0  0  0  0  0  0  0  0  0  0  0
  -17.3307   -2.6140   11.2729 N   0  0  0  0  0  0  0  0  0  0  0  0
  -18.6215   -2.1227   11.2582 C   0  0  0  0  0  0  0  0  0  0  0  0
  -18.7700   -1.0458   11.9645 N   0  0  0  0  0  0  0  0  0  0  0  0
  -17.6045   -0.7610   12.6405 C   0  0  0  0  0  0  0  0  0  0  0  0
  -16.5817   -1.7746   12.1183 C   0  0  0  0  0  0  0  0  0  0  0  0
  -15.3654   -1.1402   11.5473 C   0  0  0  0  0  0  0  0  0  0  0  0
  -14.5002   -1.7347   11.0205 O   0  0  0  0  0  0  0  0  0  0  0  0
  -14.9869    0.2044   12.1850 N   0  0  0  0  0  0  0  0  0  0  0  0
  -16.1150    1.1553   12.4233 C   0  0  0  0  0  0  0  0  0  0  0  0
  -15.7747    2.2675   12.2174 O   0  0  0  0  0  0  0  0  0  0  0  0
  -17.3779    0.6452   12.5828 N   0  0  0  0  0  0  0  0  0  0  0  0
  -18.4970    1.4439   12.3496 C   0  0  0  0  0  0  0  0  0  0  0  0
  -13.7585    0.3774   12.8899 C   0  0  0  0  0  0  0  0  0  0  0  0
  -17.8347   -4.6055   11.1494 H   0  0  0  0  0  0  0  0  0  0  0  0
  -16.1705   -4.3105   11.5895 H   0  0  0  0  0  0  0  0  0  0  0  0
  -16.6585   -4.0363    9.9299 H   0  0  0  0  0  0  0  0  0  0  0  0
  -19.4759   -2.8148   11.1276 H   0  0  0  0  0  0  0  0  0  0  0  0
  -19.1386    1.4039   13.2335 H   0  0  0  0  0  0  0  0  0  0  0  0
  -18.1966    2.4888   12.1627 H   0  0  0  0  0  0  0  0  0  0  0  0
  -19.1195    1.1078   11.5044 H   0  0  0  0  0  0  0  0  0  0  0  0
  -12.9768    0.4895   12.1884 H   0  0  0  0  0  0  0  0  0  0  0  0
  -13.6139   -0.5074   13.5315 H   0  0  0  0  0  0  0  0  0  0  0  0
  -13.9023    1.2174   13.5364 H   0  0  0  0  0  0  0  0  0  0  0  0
  1  2  1  0
  2  3  1  0
  3  4  2  0
  4  5  1  0
  5  6  2  0
  6  7  1  0
  7  8  2  0
  7  9  1  0
  9 10  1  0
 10 11  2  0
 10 12  1  0
 12 13  1  0
  9 14  1  0
  6  2  1  0
 12  5  1  0
  1 15  1  0
  1 16  1  0
  1 17  1  0
  3 18  1  0
 13 19  1  0
 13 20  1  0
 13 21  1  0
 14 22  1  0
 14 23  1  0
 14 24  1  0
M  END
$$$$
caffeine_ConfGF_conf_2
     RDKit          3D

 24 25  0  0  0  0  0  0  0  0999 V2000
    2.5375    5.2973    4.3657 C   0  0  0  0  0  0  0  0  0  0  0  0
    3.7500    6.0565    4.2971 N   0  0  0  0  0  0  0  0  0  0  0  0
    4.2452    6.6962    3.2013 C   0  0  0  0  0  0  0  0  0  0  0  0
    5.4377    7.2146    3.4110 N   0  0  0  0  0  0  0  0  0  0  0  0
    5.2828    7.6311    4.7847 C   0  0  0  0  0  0  0  0  0  0  0  0
    4.5906    6.3611    5.4056 C   0  0  0  0  0  0  0  0  0  0  0  0
    5.6024    5.2655    5.7262 C   0  0  0  0  0  0  0  0  0  0  0  0
    5.2458    4.1357    5.6639 O   0  0  0  0  0  0  0  0  0  0  0  0
    7.0630    5.6254    5.6124 N   0  0  0  0  0  0  0  0  0  0  0  0
    7.3341    7.0089    6.0544 C   0  0  0  0  0  0  0  0  0  0  0  0
    8.3557    7.3314    6.4755 O   0  0  0  0  0  0  0  0  0  0  0  0
    6.5058    8.0666    5.3446 N   0  0  0  0  0  0  0  0  0  0  0  0
    7.1450    9.1937    4.8425 C   0  0  0  0  0  0  0  0  0  0  0  0
    8.0547    4.8821    4.9547 C   0  0  0  0  0  0  0  0  0  0  0  0
    2.8371    4.3902    5.0125 H   0  0  0  0  0  0  0  0  0  0  0  0
    2.2642    4.9614    3.4081 H   0  0  0  0  0  0  0  0  0  0  0  0
    1.7943    5.7699    4.9958 H   0  0  0  0  0  0  0  0  0  0  0  0
    3.7635    6.4999    2.2649 H   0  0  0  0  0  0  0  0  0  0  0  0
    7.3221    9.9177    5.6737 H   0  0  0  0  0  0  0  0  0  0  0  0
    8.1311    9.0177    4.3828 H   0  0  0  0  0  0  0  0  0  0  0  0
    6.4848    9.6453    4.1719 H   0  0  0  0  0  0  0  0  0  0  0  0
    7.9634    3.8774    5.2871 H   0  0  0  0  0  0  0  0  0  0  0  0
    7.9337    4.9558    3.8690 H   0  0  0  0  0  0  0  0  0  0  0  0
    8.9827    5.3759    5.1907 H   0  0  0  0  0  0  0  0  0  0  0  0
  1  2  1  0
  2  3  1  0
  3  4  2  0
  4  5  1  0
  5  6  2  0
  6  7  1  0
  7  8  2  0
  7  9  1  0
  9 10  1  0
 10 11  2  0
 10 12  1  0
 12 13  1  0
  9 14  1  0
  6  2  1  0
 12  5  1  0
  1 15  1  0
  1 16  1  0
  1 17  1  0
  3 18  1  0
 13 19  1  0
 13 20  1  0
 13 21  1  0
 14 22  1  0
 14 23  1  0
 14 24  1  0
M  END
$$$$
caffeine_ConfGF_conf_3
     RDKit          3D

 24 25  0  0  0  0  0  0  0  0999 V2000
  -11.6432  -14.6185   -3.2320 C   0  0  0  0  0  0  0  0  0  0  0  0
  -11.5520  -13.7692   -2.0518 N   0  0  0  0  0  0  0  0  0  0  0  0
  -12.3699  -13.8560   -0.9519 C   0  0  0  0  0  0  0  0  0  0  0  0
  -11.7817  -13.5478    0.2031 N   0  0  0  0  0  0  0  0  0  0  0  0
  -10.3943  -13.7194   -0.0991 C   0  0  0  0  0  0  0  0  0  0  0  0
  -10.3672  -13.0825   -1.6322 C   0  0  0  0  0  0  0  0  0  0  0  0
  -10.5364  -11.5862   -1.5280 C   0  0  0  0  0  0  0  0  0  0  0  0
  -11.1572  -10.9116   -2.2357 O   0  0  0  0  0  0  0  0  0  0  0  0
  -10.0538  -10.9785   -0.2005 N   0  0  0  0  0  0  0  0  0  0  0  0
   -9.2873  -11.6850    0.6879 C   0  0  0  0  0  0  0  0  0  0  0  0
   -8.1250  -11.3228    0.9264 O   0  0  0  0  0  0  0  0  0  0  0  0
   -9.4685  -13.1625    0.7129 N   0  0  0  0  0  0  0  0  0  0  0  0
   -8.6024  -13.8697    1.5727 C   0  0  0  0  0  0  0  0  0  0  0  0
  -10.5378   -9.7374    0.2160 C   0  0  0  0  0  0  0  0  0  0  0  0
  -12.6320  -14.5624   -3.5560 H   0  0  0  0  0  0  0  0  0  0  0  0
  -10.9399  -14.1234   -3.9672 H   0  0  0  0  0  0  0  0  0  0  0  0
  -11.2420  -15.6146   -3.0714 H   0  0  0  0  0  0  0  0  0  0  0  0
  -13.3322  -14.2684   -1.0986 H   0  0  0  0  0  0  0  0  0  0  0  0
   -8.3178  -13.3303    2.4583 H   0  0  0  0  0  0  0  0  0  0  0  0
   -7.8140  -14.3811    1.1045 H   0  0  0  0  0  0  0  0  0  0  0  0
   -9.2814  -14.6873    2.0001 H   0  0  0  0  0  0  0  0  0  0  0  0
   -9.7568   -8.9603    0.0153 H   0  0  0  0  0  0  0  0  0  0  0  0
  -11.4084   -9.3703   -0.2984 H   0  0  0  0  0  0  0  0  0  0  0  0
  -10.7644   -9.7110    1.2864 H   0  0  0  0  0  0  0  0  0  0  0  0
  1  2  1  0
  2  3  1  0
  3  4  2  0
  4  5  1  0
  5  6  2  0
  6  7  1  0
  7  8  2  0
  7  9  1  0
  9 10  1  0
 10 11  2  0
 10 12  1  0
 12 13  1  0
  9 14  1  0
  6  2  1  0
 12  5  1  0
  1 15  1  0
  1 16  1  0
  1 17  1  0
  3 18  1  0
 13 19  1  0
 13 20  1  0
 13 21  1  0
 14 22  1  0
 14 23  1  0
 14 24  1  0
M  END
$$$$
caffeine_ConfGF_conf_4
     RDKit          3D

 24 25  0  0  0  0  0  0  0  0999 V2000
    6.7908   10.0415   -1.2257 C   0  0  0  0  0  0  0  0  0  0  0  0
    5.7729    9.0553   -0.8139 N   0  0  0  0  0  0  0  0  0  0  0  0
    4.4937    9.0025   -1.4173 C   0  0  0  0  0  0  0  0  0  0  0  0
    3.5492    9.1309   -0.3454 N   0  0  0  0  0  0  0  0  0  0  0  0
    4.0539    9.0825    0.8190 C   0  0  0  0  0  0  0  0  0  0  0  0
    5.5617    8.3378    0.3463 C   0  0  0  0  0  0  0  0  0  0  0  0
    6.0435    8.0368    1.6148 C   0  0  0  0  0  0  0  0  0  0  0  0
    6.4523    7.0065    2.0402 O   0  0  0  0  0  0  0  0  0  0  0  0
    6.1278    9.1821    2.6728 N   0  0  0  0  0  0  0  0  0  0  0  0
    5.1951   10.3343    2.5104 C   0  0  0  0  0  0  0  0  0  0  0  0
    5.3862   11.2666    3.2451 O   0  0  0  0  0  0  0  0  0  0  0  0
    4.3875   10.4035    1.4025 N   0  0  0  0  0  0  0  0  0  0  0  0
    4.2703   11.5678    0.5151 C   0  0  0  0  0  0  0  0  0  0  0  0
    7.3529    9.2762    3.3905 C   0  0  0  0  0  0  0  0  0  0  0  0
    7.5764    9.8190   -0.4581 H   0  0  0  0  0  0  0  0  0  0  0  0
    7.1460    9.8006   -2.1641 H   0  0  0  0  0  0  0  0  0  0  0  0
    6.3997   11.0214   -1.1529 H   0  0  0  0  0  0  0  0  0  0  0  0
    4.2773    9.6337   -2.2657 H   0  0  0  0  0  0  0  0  0  0  0  0
    3.5954   12.2235    0.9062 H   0  0  0  0  0  0  0  0  0  0  0  0
    4.0885   11.1825   -0.4739 H   0  0  0  0  0  0  0  0  0  0  0  0
    5.2677   12.0573    0.5033 H   0  0  0  0  0  0  0  0  0  0  0  0
    7.1454   10.0251    4.0874 H   0  0  0  0  0  0  0  0  0  0  0  0
    7.5986    8.3403    3.7750 H   0  0  0  0  0  0  0  0  0  0  0  0
    8.1537    9.5947    2.7256 H   0  0  0  0  0  0  0  0  0  0  0  0
  1  2  1  0
  2  3  1  0
  3  4  2  0
  4  5  1  0
  5  6  2  0
  6  7  1  0
  7  8  2  0
  7  9  1  0
  9 10  1  0
 10 11  2  0
 10 12  1  0
 12 13  1  0
  9 14  1  0
  6  2  1  0
 12  5  1  0
  1 15  1  0
  1 16  1  0
  1 17  1  0
  3 18  1  0
 13 19  1  0
 13 20  1  0
 13 21  1  0
 14 22  1  0
 14 23  1  0
 14 24  1  0
M  END
$$$$
caffeine_ConfGF_conf_5
     RDKit          3D

 24 25  0  0  0  0  0  0  0  0999 V2000
  -14.5663    7.3248    1.2315 C   0  0  0  0  0  0  0  0  0  0  0  0
  -14.2471    6.6100    2.4092 N   0  0  0  0  0  0  0  0  0  0  0  0
  -15.0464    6.2705    3.4579 C   0  0  0  0  0  0  0  0  0  0  0  0
  -14.8280    5.0518    3.9881 N   0  0  0  0  0  0  0  0  0  0  0  0
  -13.4811    4.7996    3.6714 C   0  0  0  0  0  0  0  0  0  0  0  0
  -13.0517    5.7848    2.5671 C   0  0  0  0  0  0  0  0  0  0  0  0
  -12.4624    5.1077    1.3761 C   0  0  0  0  0  0  0  0  0  0  0  0
  -11.9147    5.7014    0.5608 O   0  0  0  0  0  0  0  0  0  0  0  0
  -13.0849    3.7688    0.8940 N   0  0  0  0  0  0  0  0  0  0  0  0
  -13.7768    2.9852    1.9471 C   0  0  0  0  0  0  0  0  0  0  0  0
  -14.8344    2.4179    1.7209 O   0  0  0  0  0  0  0  0  0  0  0  0
  -13.4900    3.3467    3.3010 N   0  0  0  0  0  0  0  0  0  0  0  0
  -13.5060    2.4529    4.3353 C   0  0  0  0  0  0  0  0  0  0  0  0
  -13.4560    3.6189   -0.4188 C   0  0  0  0  0  0  0  0  0  0  0  0
  -14.7637    6.6461    0.3701 H   0  0  0  0  0  0  0  0  0  0  0  0
  -15.3911    7.9168    1.3874 H   0  0  0  0  0  0  0  0  0  0  0  0
  -13.6525    7.8722    0.9370 H   0  0  0  0  0  0  0  0  0  0  0  0
  -15.8898    6.8743    3.6572 H   0  0  0  0  0  0  0  0  0  0  0  0
  -13.7264    2.9807    5.3022 H   0  0  0  0  0  0  0  0  0  0  0  0
  -12.5368    1.9913    4.4917 H   0  0  0  0  0  0  0  0  0  0  0  0
  -14.3084    1.7051    4.2488 H   0  0  0  0  0  0  0  0  0  0  0  0
  -12.6360    3.2331   -0.9857 H   0  0  0  0  0  0  0  0  0  0  0  0
  -14.3126    2.9272   -0.4660 H   0  0  0  0  0  0  0  0  0  0  0  0
  -13.8311    4.5330   -0.9011 H   0  0  0  0  0  0  0  0  0  0  0  0
  1  2  1  0
  2  3  1  0
  3  4  2  0
  4  5  1  0
  5  6  2  0
  6  7  1  0
  7  8  2  0
  7  9  1  0
  9 10  1  0
 10 11  2  0
 10 12  1  0
 12 13  1  0
  9 14  1  0
  6  2  1  0
 12  5  1  0
  1 15  1  0
  1 16  1  0
  1 17  1  0
  3 18  1  0
 13 19  1  0
 13 20  1  0
 13 21  1  0
 14 22  1  0
 14 23  1  0
 14 24  1  0
M  END
$$$$
caffeine_ConfGF_conf_6
     RDKit          3D

 24 25  0  0  0  0  0  0  0  0999 V2000
   -2.4340  -13.4143   15.4525 C   0  0  0  0  0  0  0  0  0  0  0  0
   -2.8861  -12.1038   15.5972 N   0  0  0  0  0  0  0  0  0  0  0  0
   -3.3673  -11.5408   16.7701 C   0  0  0  0  0  0  0  0  0  0  0  0
   -4.1898  -10.5365   16.5814 N   0  0  0  0  0  0  0  0  0  0  0  0
   -4.0933  -10.1531   15.2730 C   0  0  0  0  0  0  0  0  0  0  0  0
   -3.1786  -11.1730   14.5412 C   0  0  0  0  0  0  0  0  0  0  0  0
   -3.5947  -11.6178   13.2491 C   0  0  0  0  0  0  0  0  0  0  0  0
   -3.0192  -11.3529   12.1998 O   0  0  0  0  0  0  0  0  0  0  0  0
   -5.1496  -11.7657   13.0531 N   0  0  0  0  0  0  0  0  0  0  0  0
   -6.0214  -11.3379   14.1408 C   0  0  0  0  0  0  0  0  0  0  0  0
   -6.9218  -11.9538   14.6115 O   0  0  0  0  0  0  0  0  0  0  0  0
   -5.5795  -10.0984   14.7995 N   0  0  0  0  0  0  0  0  0  0  0  0
   -6.3212   -9.3100   15.5770 C   0  0  0  0  0  0  0  0  0  0  0  0
   -5.5918  -12.4801   11.9796 C   0  0  0  0  0  0  0  0  0  0  0  0
   -2.8822  -13.8278   14.5078 H   0  0  0  0  0  0  0  0  0  0  0  0
   -2.6820  -14.0602   16.2616 H   0  0  0  0  0  0  0  0  0  0  0  0
   -1.3584  -13.3823   15.2536 H   0  0  0  0  0  0  0  0  0  0  0  0
   -3.6014  -12.2155   17.6081 H   0  0  0  0  0  0  0  0  0  0  0  0
   -5.8082   -8.9311   16.4286 H   0  0  0  0  0  0  0  0  0  0  0  0
   -6.6925   -8.4296   14.9933 H   0  0  0  0  0  0  0  0  0  0  0  0
   -7.2400   -9.7892   15.9618 H   0  0  0  0  0  0  0  0  0  0  0  0
   -6.5567  -12.0964   11.7111 H   0  0  0  0  0  0  0  0  0  0  0  0
   -4.9120  -12.2677   11.1201 H   0  0  0  0  0  0  0  0  0  0  0  0
   -5.6415  -13.5808   12.0611 H   0  0  0  0  0  0  0  0  0  0  0  0
  1  2  1  0
  2  3  1  0
  3  4  2  0
  4  5  1  0
  5  6  2  0
  6  7  1  0
  7  8  2  0
  7  9  1  0
  9 10  1  0
 10 11  2  0
 10 12  1  0
 12 13  1  0
  9 14  1  0
  6  2  1  0
 12  5  1  0
  1 15  1  0
  1 16  1  0
  1 17  1  0
  3 18  1  0
 13 19  1  0
 13 20  1  0
 13 21  1  0
 14 22  1  0
 14 23  1  0
 14 24  1  0
M  END
$$$$
caffeine_ConfGF_conf_7
     RDKit          3D

 24 25  0  0  0  0  0  0  0  0999 V2000
   -1.3162    6.8350   -1.4739 C   0  0  0  0  0  0  0  0  0  0  0  0
   -1.5246    5.4467   -1.2090 N   0  0  0  0  0  0  0  0  0  0  0  0
   -1.6653    4.9508    0.1022 C   0  0  0  0  0  0  0  0  0  0  0  0
   -2.2016    3.7846    0.1232 N   0  0  0  0  0  0  0  0  0  0  0  0
   -2.7165    3.4931   -1.1617 C   0  0  0  0  0  0  0  0  0  0  0  0
   -1.8767    4.4568   -2.1645 C   0  0  0  0  0  0  0  0  0  0  0  0
   -0.7268    3.5937   -2.7532 C   0  0  0  0  0  0  0  0  0  0  0  0
    0.0428    4.0933   -3.4237 O   0  0  0  0  0  0  0  0  0  0  0  0
   -0.1775    2.3555   -1.9217 N   0  0  0  0  0  0  0  0  0  0  0  0
   -1.2281    1.5036   -1.3084 C   0  0  0  0  0  0  0  0  0  0  0  0
   -1.1791    0.3951   -1.0575 O   0  0  0  0  0  0  0  0  0  0  0  0
   -2.6378    2.0924   -1.3755 N   0  0  0  0  0  0  0  0  0  0  0  0
   -3.6753    1.2548   -1.7955 C   0  0  0  0  0  0  0  0  0  0  0  0
    0.9913    2.5809   -1.1916 C   0  0  0  0  0  0  0  0  0  0  0  0
   -0.3199    7.0557   -1.6472 H   0  0  0  0  0  0  0  0  0  0  0  0
   -1.8847    7.4310   -0.7618 H   0  0  0  0  0  0  0  0  0  0  0  0
   -1.8729    7.0037   -2.4647 H   0  0  0  0  0  0  0  0  0  0  0  0
   -0.7528    5.2156    0.6899 H   0  0  0  0  0  0  0  0  0  0  0  0
   -3.6787    1.0557   -2.8967 H   0  0  0  0  0  0  0  0  0  0  0  0
   -3.6368    0.3002   -1.3333 H   0  0  0  0  0  0  0  0  0  0  0  0
   -4.5532    1.8682   -1.5919 H   0  0  0  0  0  0  0  0  0  0  0  0
    0.8923    2.0376   -0.2307 H   0  0  0  0  0  0  0  0  0  0  0  0
    1.2342    3.5931   -0.9457 H   0  0  0  0  0  0  0  0  0  0  0  0
    1.7994    2.0972   -1.7402 H   0  0  0  0  0  0  0  0  0  0  0  0
  1  2  1  0
  2  3  1  0
  3  4  2  0
  4  5  1  0
  5  6  2  0
  6  7  1  0
  7  8  2  0
  7  9  1  0
  9 10  1  0
 10 11  2  0
 10 12  1  0
 12 13  1  0
  9 14  1  0
  6  2  1  0
 12  5  1  0
  1 15  1  0
  1 16  1  0
  1 17  1  0
  3 18  1  0
 13 19  1  0
 13 20  1  0
 13 21  1  0
 14 22  1  0
 14 23  1  0
 14 24  1  0
M  END
$$$$
caffeine_ConfGF_conf_8
     RDKit          3D

 24 25  0  0  0  0  0  0  0  0999 V2000
   -4.8573   -1.4544  -14.5329 C   0  0  0  0  0  0  0  0  0  0  0  0
   -4.3650   -0.1399  -14.7892 N   0  0  0  0  0  0  0  0  0  0  0  0
   -4.7847    1.0543  -14.2383 C   0  0  0  0  0  0  0  0  0  0  0  0
   -3.7229    1.8511  -14.0186 N   0  0  0  0  0  0  0  0  0  0  0  0
   -2.9047    1.6147  -15.0441 C   0  0  0  0  0  0  0  0  0  0  0  0
   -3.2554    0.1796  -15.5705 C   0  0  0  0  0  0  0  0  0  0  0  0
   -2.4920   -0.1596  -16.6300 C   0  0  0  0  0  0  0  0  0  0  0  0
   -2.8498   -0.1691  -17.8044 O   0  0  0  0  0  0  0  0  0  0  0  0
   -0.9880    0.1336  -16.3948 N   0  0  0  0  0  0  0  0  0  0  0  0
   -0.5610    0.8732  -15.1991 C   0  0  0  0  0  0  0  0  0  0  0  0
    0.3900    0.5548  -14.6423 O   0  0  0  0  0  0  0  0  0  0  0  0
   -1.5353    1.8408  -14.7085 N   0  0  0  0  0  0  0  0  0  0  0  0
   -1.1811    2.7651  -13.8162 C   0  0  0  0  0  0  0  0  0  0  0  0
   -0.0699   -0.3396  -17.3286 C   0  0  0  0  0  0  0  0  0  0  0  0
   -3.9764   -2.1220  -14.4530 H   0  0  0  0  0  0  0  0  0  0  0  0
   -5.4309   -1.8229  -15.3573 H   0  0  0  0  0  0  0  0  0  0  0  0
   -5.3967   -1.4431  -13.5936 H   0  0  0  0  0  0  0  0  0  0  0  0
   -5.6713    1.0300  -13.6312 H   0  0  0  0  0  0  0  0  0  0  0  0
   -0.7818    3.7021  -14.2394 H   0  0  0  0  0  0  0  0  0  0  0  0
   -0.4536    2.4623  -13.0591 H   0  0  0  0  0  0  0  0  0  0  0  0
   -2.0783    3.0633  -13.2216 H   0  0  0  0  0  0  0  0  0  0  0  0
    0.4420    0.4624  -17.8442 H   0  0  0  0  0  0  0  0  0  0  0  0
   -0.6581   -0.8591  -18.1038 H   0  0  0  0  0  0  0  0  0  0  0  0
    0.5838   -0.9791  -16.8247 H   0  0  0  0  0  0  0  0  0  0  0  0
  1  2  1  0
  2  3  1  0
  3  4  2  0
  4  5  1  0
  5  6  2  0
  6  7  1  0
  7  8  2  0
  7  9  1  0
  9 10  1  0
 10 11  2  0
 10 12  1  0
 12 13  1  0
  9 14  1  0
  6  2  1  0
 12  5  1  0
  1 15  1  0
  1 16  1  0
  1 17  1  0
  3 18  1  0
 13 19  1  0
 13 20  1  0
 13 21  1  0
 14 22  1  0
 14 23  1  0
 14 24  1  0
M  END
$$$$
caffeine_ConfGF_conf_9
     RDKit          3D

 24 25  0  0  0  0  0  0  0  0999 V2000
    5.1389  -13.3670    5.7447 C   0  0  0  0  0  0  0  0  0  0  0  0
    4.8828  -14.5632    5.0041 N   0  0  0  0  0  0  0  0  0  0  0  0
    5.1401  -15.8693    5.3567 C   0  0  0  0  0  0  0  0  0  0  0  0
    4.2722  -16.7586    4.9214 N   0  0  0  0  0  0  0  0  0  0  0  0
    3.1760  -16.0097    4.4680 C   0  0  0  0  0  0  0  0  0  0  0  0
    3.9047  -14.5816    3.9305 C   0  0  0  0  0  0  0  0  0  0  0  0
    4.5603  -14.9863    2.5500 C   0  0  0  0  0  0  0  0  0  0  0  0
    5.5757  -14.4614    2.3108 O   0  0  0  0  0  0  0  0  0  0  0  0
    3.7297  -15.7498    1.6784 N   0  0  0  0  0  0  0  0  0  0  0  0
    2.9968  -16.9506    2.2110 C   0  0  0  0  0  0  0  0  0  0  0  0
    2.3080  -17.5952    1.5296 O   0  0  0  0  0  0  0  0  0  0  0  0
    2.3170  -16.5458    3.5268 N   0  0  0  0  0  0  0  0  0  0  0  0
    0.9765  -16.8097    3.7517 C   0  0  0  0  0  0  0  0  0  0  0  0
    3.7461  -15.5729    0.2725 C   0  0  0  0  0  0  0  0  0  0  0  0
    5.5156  -12.6241    4.9606 H   0  0  0  0  0  0  0  0  0  0  0  0
    5.9073  -13.5275    6.4469 H   0  0  0  0  0  0  0  0  0  0  0  0
    4.2641  -12.9001    6.1856 H   0  0  0  0  0  0  0  0  0  0  0  0
    5.7410  -16.0085    6.2180 H   0  0  0  0  0  0  0  0  0  0  0  0
    0.3656  -15.9012    3.6260 H   0  0  0  0  0  0  0  0  0  0  0  0
    0.5671  -17.6035    3.1314 H   0  0  0  0  0  0  0  0  0  0  0  0
    0.8965  -17.0786    4.7929 H   0  0  0  0  0  0  0  0  0  0  0  0
    3.3309  -16.5287   -0.1066 H   0  0  0  0  0  0  0  0  0  0  0  0
    3.2059  -14.7498   -0.0740 H   0  0  0  0  0  0  0  0  0  0  0  0
    4.7889  -15.5288   -0.0713 H   0  0  0  0  0  0  0  0  0  0  0  0
  1  2  1  0
  2  3  1  0
  3  4  2  0
  4  5  1  0
  5  6  2  0
  6  7  1  0
  7  8  2  0
  7  9  1  0
  9 10  1  0
 10 11  2  0
 10 12  1  0
 12 13  1  0
  9 14  1  0
  6  2  1  0
 12  5  1  0
  1 15  1  0
  1 16  1  0
  1 17  1  0
  3 18  1  0
 13 19  1  0
 13 20  1  0
 13 21  1  0
 14 22  1  0
 14 23  1  0
 14 24  1  0
M  END
$$$$
