caffeine_torsional_diffusion_conf_0
     RDKit          3D

 24 25  0  0  0  0  0  0  0  0999 V2000
    3.2146    0.6887   -0.2303 C   0  0  0  0  0  0  0  0  0  0  0  0
    2.1331   -0.2719   -0.2772 N   0  0  0  0  0  0  0  0  0  0  0  0
    2.2250   -1.5739   -0.5046 C   0  0  0  0  0  0  0  0  0  0  0  0
    0.9839   -2.1129   -0.4643 N   0  0  0  0  0  0  0  0  0  0  0  0
    0.1204   -1.1085   -0.2056 C   0  0  0  0  0  0  0  0  0  0  0  0
    0.8433    0.0606   -0.0861 C   0  0  0  0  0  0  0  0  0  0  0  0
    0.1422    1.2156    0.1807 C   0  0  0  0  0  0  0  0  0  0  0  0
    0.7805    2.2914    0.2935 O   0  0  0  0  0  0  0  0  0  0  0  0
   -1.1923    1.1502    0.3100 N   0  0  0  0  0  0  0  0  0  0  0  0
   -1.9041    0.0216    0.1961 C   0  0  0  0  0  0  0  0  0  0  0  0
   -3.1595   -0.0232    0.3205 O   0  0  0  0  0  0  0  0  0  0  0  0
   -1.2365   -1.1333   -0.0672 N   0  0  0  0  0  0  0  0  0  0  0  0
   -1.9830   -2.3705   -0.1956 C   0  0  0  0  0  0  0  0  0  0  0  0
   -1.8955    2.3920    0.5916 C   0  0  0  0  0  0  0  0  0  0  0  0
    3.1559    1.2955   -1.1758 H   0  0  0  0  0  0  0  0  0  0  0  0
    3.1930    1.3466    0.6522 H   0  0  0  0  0  0  0  0  0  0  0  0
    4.2030    0.1855   -0.2631 H   0  0  0  0  0  0  0  0  0  0  0  0
    3.1727   -2.1034   -0.6928 H   0  0  0  0  0  0  0  0  0  0  0  0
   -3.0808   -2.2296   -0.0755 H   0  0  0  0  0  0  0  0  0  0  0  0
   -1.8468   -2.7085   -1.2504 H   0  0  0  0  0  0  0  0  0  0  0  0
   -1.6143   -3.1664    0.4512 H   0  0  0  0  0  0  0  0  0  0  0  0
   -1.2550    3.2687    0.4130 H   0  0  0  0  0  0  0  0  0  0  0  0
   -2.2221    2.3318    1.6624 H   0  0  0  0  0  0  0  0  0  0  0  0
   -2.8167    2.4677   -0.0252 H   0  0  0  0  0  0  0  0  0  0  0  0
  1  2  1  0
  2  3  1  0
  3  4  2  0
  4  5  1  0
  5  6  2  0
  6  7  1  0
  7  8  2  0
  7  9  1  0
  9 10  1  0
 10 11  2  0
 10 12  1  0
 12 13  1  0
  9 14  1  0
  6  2  1  0
 12  5  1  0
  1 15  1  0
  1 16  1  0
  1 17  1  0
  3 18  1  0
 13 19  1  0
 13 20  1  0
 13 21  1  0
 14 22  1  0
 14 23  1  0
 14 24  1  0
M  END
$$$$
caffeine_torsional_diffusion_conf_1
     RDKit          3D

 24 25  0  0  0  0  0  0  0  0999 V2000
    3.2925   -0.0308    0.2503 C   0  0  0  0  0  0  0  0  0  0  0  0
    2.0380    0.6654    0.3082 N   0  0  0  0  0  0  0  0  0  0  0  0
    1.9092    1.9836    0.4392 C   0  0  0  0  0  0  0  0  0  0  0  0
    0.5962    2.2757    0.4559 N   0  0  0  0  0  0  0  0  0  0  0  0
   -0.1216    1.1360    0.3347 C   0  0  0  0  0  0  0  0  0  0  0  0
    0.8126    0.1330    0.2430 C   0  0  0  0  0  0  0  0  0  0  0  0
    0.3191   -1.1607    0.1084 C   0  0  0  0  0  0  0  0  0  0  0  0
    1.1323   -2.1087    0.0211 O   0  0  0  0  0  0  0  0  0  0  0  0
   -0.9863   -1.4019    0.0717 N   0  0  0  0  0  0  0  0  0  0  0  0
   -1.8752   -0.3875    0.1650 C   0  0  0  0  0  0  0  0  0  0  0  0
   -3.1247   -0.5856    0.1332 O   0  0  0  0  0  0  0  0  0  0  0  0
   -1.4399    0.8864    0.2970 N   0  0  0  0  0  0  0  0  0  0  0  0
   -2.4058    1.9801    0.3975 C   0  0  0  0  0  0  0  0  0  0  0  0
   -1.4493   -2.7719   -0.0701 C   0  0  0  0  0  0  0  0  0  0  0  0
    3.4795   -0.4465   -0.7825 H   0  0  0  0  0  0  0  0  0  0  0  0
    3.2706   -0.8940    0.9614 H   0  0  0  0  0  0  0  0  0  0  0  0
    4.1704    0.5605    0.4997 H   0  0  0  0  0  0  0  0  0  0  0  0
    2.7298    2.7028    0.5192 H   0  0  0  0  0  0  0  0  0  0  0  0
   -2.2491    2.5186    1.3330 H   0  0  0  0  0  0  0  0  0  0  0  0
   -2.2585    2.5824   -0.5025 H   0  0  0  0  0  0  0  0  0  0  0  0
   -3.4203    1.4981    0.4085 H   0  0  0  0  0  0  0  0  0  0  0  0
   -2.1581   -2.8515   -0.9270 H   0  0  0  0  0  0  0  0  0  0  0  0
   -0.5918   -3.4674   -0.1961 H   0  0  0  0  0  0  0  0  0  0  0  0
   -2.0256   -3.0557    0.8429 H   0  0  0  0  0  0  0  0  0  0  0  0
  1  2  1  0
  2  3  1  0
  3  4  2  0
  4  5  1  0
  5  6  2  0
  6  7  1  0
  7  8  2  0
  7  9  1  0
  9 10  1  0
 10 11  2  0
 10 12  1  0
 12 13  1  0
  9 14  1  0
  6  2  1  0
 12  5  1  0
  1 15  1  0
  1 16  1  0
  1 17  1  0
  3 18  1  0
 13 19  1  0
 13 20  1  0
 13 21  1  0
 14 22  1  0
 14 23  1  0
 14 24  1  0
M  END
$$$$
caffeine_torsional_diffusion_conf_2
     RDKit          3D

 24 25  0  0  0  0  0  0  0  0999 V2000
   -2.9866   -1.4767    0.2026 C   0  0  0  0  0  0  0  0  0  0  0  0
   -2.1396   -0.3185    0.0567 N   0  0  0  0  0  0  0  0  0  0  0  0
   -2.6092    0.9269   -0.0926 C   0  0  0  0  0  0  0  0  0  0  0  0
   -1.5546    1.7853   -0.2031 N   0  0  0  0  0  0  0  0  0  0  0  0
   -0.4039    1.0863   -0.1242 C   0  0  0  0  0  0  0  0  0  0  0  0
   -0.8007   -0.2288    0.0383 C   0  0  0  0  0  0  0  0  0  0  0  0
    0.1837   -1.1884    0.1499 C   0  0  0  0  0  0  0  0  0  0  0  0
   -0.1239   -2.3882    0.2979 O   0  0  0  0  0  0  0  0  0  0  0  0
    1.4814   -0.8523    0.1017 N   0  0  0  0  0  0  0  0  0  0  0  0
    1.8434    0.4520   -0.0593 C   0  0  0  0  0  0  0  0  0  0  0  0
    3.0780    0.7413   -0.1015 O   0  0  0  0  0  0  0  0  0  0  0  0
    0.9038    1.4046   -0.1703 N   0  0  0  0  0  0  0  0  0  0  0  0
    1.3022    2.7794   -0.3402 C   0  0  0  0  0  0  0  0  0  0  0  0
    2.5393   -1.8478    0.2172 C   0  0  0  0  0  0  0  0  0  0  0  0
   -2.3618   -2.4056    0.0559 H   0  0  0  0  0  0  0  0  0  0  0  0
   -3.8079   -1.4817   -0.5401 H   0  0  0  0  0  0  0  0  0  0  0  0
   -3.4298   -1.5928    1.1924 H   0  0  0  0  0  0  0  0  0  0  0  0
   -3.6584    1.2608   -0.1275 H   0  0  0  0  0  0  0  0  0  0  0  0
    1.0118    3.1267   -1.3460 H   0  0  0  0  0  0  0  0  0  0  0  0
    0.7870    3.4352    0.4026 H   0  0  0  0  0  0  0  0  0  0  0  0
    2.3931    2.9158   -0.1827 H   0  0  0  0  0  0  0  0  0  0  0  0
    2.2358   -2.6908    0.8579 H   0  0  0  0  0  0  0  0  0  0  0  0
    2.7258   -2.2531   -0.7903 H   0  0  0  0  0  0  0  0  0  0  0  0
    3.4654   -1.3568    0.5532 H   0  0  0  0  0  0  0  0  0  0  0  0
  1  2  1  0
  2  3  1  0
  3  4  2  0
  4  5  1  0
  5  6  2  0
  6  7  1  0
  7  8  2  0
  7  9  1  0
  9 10  1  0
 10 11  2  0
 10 12  1  0
 12 13  1  0
  9 14  1  0
  6  2  1  0
 12  5  1  0
  1 15  1  0
  1 16  1  0
  1 17  1  0
  3 18  1  0
 13 19  1  0
 13 20  1  0
 13 21  1  0
 14 22  1  0
 14 23  1  0
 14 24  1  0
M  END
$$$$
caffeine_torsional_diffusion_conf_3
     RDKit          3D

 24 25  0  0  0  0  0  0  0  0999 V2000
    3.3145   -0.2674    0.0843 C   0  0  0  0  0  0  0  0  0  0  0  0
    1.9934   -0.8598   -0.0721 N   0  0  0  0  0  0  0  0  0  0  0  0
    1.7202   -2.1583   -0.3024 C   0  0  0  0  0  0  0  0  0  0  0  0
    0.3849   -2.2922   -0.3822 N   0  0  0  0  0  0  0  0  0  0  0  0
   -0.2054   -1.1065   -0.2080 C   0  0  0  0  0  0  0  0  0  0  0  0
    0.8106   -0.1951   -0.0110 C   0  0  0  0  0  0  0  0  0  0  0  0
    0.4567    1.1112    0.1937 C   0  0  0  0  0  0  0  0  0  0  0  0
    1.3431    1.9813    0.3782 O   0  0  0  0  0  0  0  0  0  0  0  0
   -0.8451    1.4822    0.2003 N   0  0  0  0  0  0  0  0  0  0  0  0
   -1.8023    0.5560    0.0033 C   0  0  0  0  0  0  0  0  0  0  0  0
   -3.0208    0.8710    0.0041 O   0  0  0  0  0  0  0  0  0  0  0  0
   -1.5135   -0.7432   -0.2029 N   0  0  0  0  0  0  0  0  0  0  0  0
   -2.5827   -1.7054   -0.4108 C   0  0  0  0  0  0  0  0  0  0  0  0
   -1.1555    2.8653    0.4198 C   0  0  0  0  0  0  0  0  0  0  0  0
    3.4797    0.4330   -0.7611 H   0  0  0  0  0  0  0  0  0  0  0  0
    4.1129   -1.0530   -0.0638 H   0  0  0  0  0  0  0  0  0  0  0  0
    3.4376    0.2734    1.0387 H   0  0  0  0  0  0  0  0  0  0  0  0
    2.4852   -2.9179   -0.3975 H   0  0  0  0  0  0  0  0  0  0  0  0
   -2.3511   -2.6705    0.1274 H   0  0  0  0  0  0  0  0  0  0  0  0
   -2.6333   -2.0116   -1.4919 H   0  0  0  0  0  0  0  0  0  0  0  0
   -3.5607   -1.2978   -0.0795 H   0  0  0  0  0  0  0  0  0  0  0  0
   -2.0480    3.0184    1.0427 H   0  0  0  0  0  0  0  0  0  0  0  0
   -0.3005    3.3880    0.9215 H   0  0  0  0  0  0  0  0  0  0  0  0
   -1.2715    3.4305   -0.5483 H   0  0  0  0  0  0  0  0  0  0  0  0
  1  2  1  0
  2  3  1  0
  3  4  2  0
  4  5  1  0
  5  6  2  0
  6  7  1  0
  7  8  2  0
  7  9  1  0
  9 10  1  0
 10 11  2  0
 10 12  1  0
 12 13  1  0
  9 14  1  0
  6  2  1  0
 12  5  1  0
  1 15  1  0
  1 16  1  0
  1 17  1  0
  3 18  1  0
 13 19  1  0
 13 20  1  0
 13 21  1  0
 14 22  1  0
 14 23  1  0
 14 24  1  0
M  END
$$$$
caffeine_torsional_diffusion_conf_4
     RDKit          3D

 24 25  0  0  0  0  0  0  0  0999 V2000
    3.0758   -1.1326    0.2051 C   0  0  0  0  0  0  0  0  0  0  0  0
    2.1429   -0.0968   -0.1132 N   0  0  0  0  0  0  0  0  0  0  0  0
    2.4425    1.1362   -0.5873 C   0  0  0  0  0  0  0  0  0  0  0  0
    1.3013    1.8450   -0.7711 N   0  0  0  0  0  0  0  0  0  0  0  0
    0.2919    1.0306   -0.4032 C   0  0  0  0  0  0  0  0  0  0  0  0
    0.8064   -0.1849    0.0095 C   0  0  0  0  0  0  0  0  0  0  0  0
   -0.0705   -1.1857    0.4372 C   0  0  0  0  0  0  0  0  0  0  0  0
    0.3800   -2.2982    0.8163 O   0  0  0  0  0  0  0  0  0  0  0  0
   -1.3936   -0.9202    0.4288 N   0  0  0  0  0  0  0  0  0  0  0  0
   -1.8713    0.2720    0.0221 C   0  0  0  0  0  0  0  0  0  0  0  0
   -3.1099    0.4838    0.0278 O   0  0  0  0  0  0  0  0  0  0  0  0
   -1.0346    1.2604   -0.3982 N   0  0  0  0  0  0  0  0  0  0  0  0
   -1.5447    2.5535   -0.8398 C   0  0  0  0  0  0  0  0  0  0  0  0
   -2.2952   -1.9741    0.8776 C   0  0  0  0  0  0  0  0  0  0  0  0
    3.8568   -0.8078    0.9311 H   0  0  0  0  0  0  0  0  0  0  0  0
    3.6527   -1.3715   -0.7177 H   0  0  0  0  0  0  0  0  0  0  0  0
    2.5921   -2.0860    0.5659 H   0  0  0  0  0  0  0  0  0  0  0  0
    3.4583    1.5090   -0.7931 H   0  0  0  0  0  0  0  0  0  0  0  0
   -2.6447    2.6210   -0.6744 H   0  0  0  0  0  0  0  0  0  0  0  0
   -1.0630    3.2935   -0.1448 H   0  0  0  0  0  0  0  0  0  0  0  0
   -1.2338    2.7709   -1.8704 H   0  0  0  0  0  0  0  0  0  0  0  0
   -2.9203   -1.6111    1.7441 H   0  0  0  0  0  0  0  0  0  0  0  0
   -3.0327   -2.2410    0.1037 H   0  0  0  0  0  0  0  0  0  0  0  0
   -1.7050   -2.8476    1.2357 H   0  0  0  0  0  0  0  0  0  0  0  0
  1  2  1  0
  2  3  1  0
  3  4  2  0
  4  5  1  0
  5  6  2  0
  6  7  1  0
  7  8  2  0
  7  9  1  0
  9 10  1  0
 10 11  2  0
 10 12  1  0
 12 13  1  0
  9 14  1  0
  6  2  1  0
 12  5  1  0
  1 15  1  0
  1 16  1  0
  1 17  1  0
  3 18  1  0
 13 19  1  0
 13 20  1  0
 13 21  1  0
 14 22  1  0
 14 23  1  0
 14 24  1  0
M  END
$$$$
caffeine_torsional_diffusion_conf_5
     RDKit          3D

 24 25  0  0  0  0  0  0  0  0999 V2000
   -3.0042   -1.3328   -0.0928 C   0  0  0  0  0  0  0  0  0  0  0  0
   -2.1542   -0.1465   -0.0486 N   0  0  0  0  0  0  0  0  0  0  0  0
   -2.5610    1.1426   -0.0265 C   0  0  0  0  0  0  0  0  0  0  0  0
   -1.4512    1.8956    0.0126 N   0  0  0  0  0  0  0  0  0  0  0  0
   -0.3585    1.1149    0.0157 C   0  0  0  0  0  0  0  0  0  0  0  0
   -0.8097   -0.1906   -0.0235 C   0  0  0  0  0  0  0  0  0  0  0  0
    0.1110   -1.2283   -0.0298 C   0  0  0  0  0  0  0  0  0  0  0  0
   -0.2943   -2.4385   -0.0659 O   0  0  0  0  0  0  0  0  0  0  0  0
    1.4143   -0.9280    0.0025 N   0  0  0  0  0  0  0  0  0  0  0  0
    1.8673    0.3584    0.0413 C   0  0  0  0  0  0  0  0  0  0  0  0
    3.0995    0.6061    0.0710 O   0  0  0  0  0  0  0  0  0  0  0  0
    0.9648    1.3551    0.0470 N   0  0  0  0  0  0  0  0  0  0  0  0
    1.4224    2.7482    0.0883 C   0  0  0  0  0  0  0  0  0  0  0  0
    2.4172   -2.0024   -0.0030 C   0  0  0  0  0  0  0  0  0  0  0  0
   -4.0524   -1.0223   -0.2453 H   0  0  0  0  0  0  0  0  0  0  0  0
   -2.9946   -1.8798    0.8746 H   0  0  0  0  0  0  0  0  0  0  0  0
   -2.7240   -1.9623   -0.9493 H   0  0  0  0  0  0  0  0  0  0  0  0
   -3.6006    1.5046   -0.0383 H   0  0  0  0  0  0  0  0  0  0  0  0
    0.9916    3.2967   -0.7981 H   0  0  0  0  0  0  0  0  0  0  0  0
    2.5121    2.8383    0.1417 H   0  0  0  0  0  0  0  0  0  0  0  0
    0.9683    3.2246    0.9775 H   0  0  0  0  0  0  0  0  0  0  0  0
    2.9746   -1.9647   -0.9515 H   0  0  0  0  0  0  0  0  0  0  0  0
    3.1372   -1.9136    0.8122 H   0  0  0  0  0  0  0  0  0  0  0  0
    1.8624   -2.9526    0.0400 H   0  0  0  0  0  0  0  0  0  0  0  0
  1  2  1  0
  2  3  1  0
  3  4  2  0
  4  5  1  0
  5  6  2  0
  6  7  1  0
  7  8  2  0
  7  9  1  0
  9 10  1  0
 10 11  2  0
 10 12  1  0
 12 13  1  0
  9 14  1  0
  6  2  1  0
 12  5  1  0
  1 15  1  0
  1 16  1  0
  1 17  1  0
  3 18  1  0
 13 19  1  0
 13 20  1  0
 13 21  1  0
 14 22  1  0
 14 23  1  0
 14 24  1  0
M  END
$$$$
caffeine_torsional_diffusion_conf_6
     RDKit          3D

 24 25  0  0  0  0  0  0  0  0999 V2000
    3.1370   -1.0313    0.3332 C   0  0  0  0  0  0  0  0  0  0  0  0
    2.1411   -0.0012    0.3891 N   0  0  0  0  0  0  0  0  0  0  0  0
    2.3907    1.2915    0.5662 C   0  0  0  0  0  0  0  0  0  0  0  0
    1.2442    1.9972    0.5714 N   0  0  0  0  0  0  0  0  0  0  0  0
    0.2247    1.1299    0.3918 C   0  0  0  0  0  0  0  0  0  0  0  0
    0.8072   -0.1263    0.2786 C   0  0  0  0  0  0  0  0  0  0  0  0
   -0.0322   -1.2102    0.0852 C   0  0  0  0  0  0  0  0  0  0  0  0
    0.4690   -2.3698   -0.0219 O   0  0  0  0  0  0  0  0  0  0  0  0
   -1.3508   -1.0339    0.0129 N   0  0  0  0  0  0  0  0  0  0  0  0
   -1.8829    0.2114    0.1284 C   0  0  0  0  0  0  0  0  0  0  0  0
   -3.1513    0.3038    0.0494 O   0  0  0  0  0  0  0  0  0  0  0  0
   -1.1133    1.2720    0.3140 N   0  0  0  0  0  0  0  0  0  0  0  0
   -1.6640    2.5907    0.4372 C   0  0  0  0  0  0  0  0  0  0  0  0
   -2.2222   -2.1763   -0.1899 C   0  0  0  0  0  0  0  0  0  0  0  0
    4.1674   -0.6964    0.4325 H   0  0  0  0  0  0  0  0  0  0  0  0
    3.0925   -1.6482   -0.5914 H   0  0  0  0  0  0  0  0  0  0  0  0
    2.9484   -1.7651    1.1666 H   0  0  0  0  0  0  0  0  0  0  0  0
    3.3873    1.7451    0.6932 H   0  0  0  0  0  0  0  0  0  0  0  0
   -1.2543    3.2546   -0.3785 H   0  0  0  0  0  0  0  0  0  0  0  0
   -2.7561    2.5166    0.3480 H   0  0  0  0  0  0  0  0  0  0  0  0
   -1.3128    2.9914    1.4156 H   0  0  0  0  0  0  0  0  0  0  0  0
   -1.7561   -3.1028    0.1959 H   0  0  0  0  0  0  0  0  0  0  0  0
   -3.1913   -1.9923    0.3142 H   0  0  0  0  0  0  0  0  0  0  0  0
   -2.3399   -2.2918   -1.3005 H   0  0  0  0  0  0  0  0  0  0  0  0
  1  2  1  0
  2  3  1  0
  3  4  2  0
  4  5  1  0
  5  6  2  0
  6  7  1  0
  7  8  2  0
  7  9  1  0
  9 10  1  0
 10 11  2  0
 10 12  1  0
 12 13  1  0
  9 14  1  0
  6  2  1  0
 12  5  1  0
  1 15  1  0
  1 16  1  0
  1 17  1  0
  3 18  1  0
 13 19  1  0
 13 20  1  0
 13 21  1  0
 14 22  1  0
 14 23  1  0
 14 24  1  0
M  END
$$$$
caffeine_torsional_diffusion_conf_7
     RDKit          3D

 24 25  0  0  0  0  0  0  0  0999 V2000
    3.0690   -1.1859   -0.2151 C   0  0  0  0  0  0  0  0  0  0  0  0
    2.1787   -0.0686   -0.0078 N   0  0  0  0  0  0  0  0  0  0  0  0
    2.5283    1.2147    0.2366 C   0  0  0  0  0  0  0  0  0  0  0  0
    1.3724    1.9259    0.3658 N   0  0  0  0  0  0  0  0  0  0  0  0
    0.3164    1.0966    0.2040 C   0  0  0  0  0  0  0  0  0  0  0  0
    0.8254   -0.1766   -0.0345 C   0  0  0  0  0  0  0  0  0  0  0  0
   -0.0575   -1.1985   -0.2320 C   0  0  0  0  0  0  0  0  0  0  0  0
    0.3620   -2.3752   -0.4527 O   0  0  0  0  0  0  0  0  0  0  0  0
   -1.3771   -0.9672   -0.1944 N   0  0  0  0  0  0  0  0  0  0  0  0
   -1.8937    0.2722    0.0377 C   0  0  0  0  0  0  0  0  0  0  0  0
   -3.1212    0.4688    0.0692 O   0  0  0  0  0  0  0  0  0  0  0  0
   -1.0180    1.2936    0.2351 N   0  0  0  0  0  0  0  0  0  0  0  0
   -1.5521    2.6157    0.4828 C   0  0  0  0  0  0  0  0  0  0  0  0
   -2.3507   -2.0236   -0.3988 C   0  0  0  0  0  0  0  0  0  0  0  0
    2.8351   -2.0244    0.5019 H   0  0  0  0  0  0  0  0  0  0  0  0
    2.8489   -1.6174   -1.2259 H   0  0  0  0  0  0  0  0  0  0  0  0
    4.1199   -0.8716   -0.1427 H   0  0  0  0  0  0  0  0  0  0  0  0
    3.5182    1.6374    0.3212 H   0  0  0  0  0  0  0  0  0  0  0  0
   -2.0302    2.7046    1.4694 H   0  0  0  0  0  0  0  0  0  0  0  0
   -2.3703    2.7405   -0.2863 H   0  0  0  0  0  0  0  0  0  0  0  0
   -0.7538    3.3807    0.3660 H   0  0  0  0  0  0  0  0  0  0  0  0
   -2.5749   -2.0397   -1.4924 H   0  0  0  0  0  0  0  0  0  0  0  0
   -1.9359   -3.0357   -0.1309 H   0  0  0  0  0  0  0  0  0  0  0  0
   -3.3070   -1.8299    0.1389 H   0  0  0  0  0  0  0  0  0  0  0  0
  1  2  1  0
  2  3  1  0
  3  4  2  0
  4  5  1  0
  5  6  2  0
  6  7  1  0
  7  8  2  0
  7  9  1  0
  9 10  1  0
 10 11  2  0
 10 12  1  0
 12 13  1  0
  9 14  1  0
  6  2  1  0
 12  5  1  0
  1 15  1  0
  1 16  1  0
  1 17  1  0
  3 18  1  0
 13 19  1  0
 13 20  1  0
 13 21  1  0
 14 22  1  0
 14 23  1  0
 14 24  1  0
M  END
$$$$
caffeine_torsional_diffusion_conf_8
     RDKit          3D

 24 25  0  0  0  0  0  0  0  0999 V2000
    3.0653    0.9875    0.4738 C   0  0  0  0  0  0  0  0  0  0  0  0
    2.1339   -0.1260    0.2617 N   0  0  0  0  0  0  0  0  0  0  0  0
    2.4251   -1.4367    0.1936 C   0  0  0  0  0  0  0  0  0  0  0  0
    1.2457   -2.0922   -0.0139 N   0  0  0  0  0  0  0  0  0  0  0  0
    0.2503   -1.1941   -0.0715 C   0  0  0  0  0  0  0  0  0  0  0  0
    0.7949    0.0620    0.1016 C   0  0  0  0  0  0  0  0  0  0  0  0
    0.0332    1.2105    0.0949 C   0  0  0  0  0  0  0  0  0  0  0  0
    0.5312    2.3659    0.2537 O   0  0  0  0  0  0  0  0  0  0  0  0
   -1.3135    1.0845   -0.0916 N   0  0  0  0  0  0  0  0  0  0  0  0
   -1.8485   -0.1394   -0.2608 C   0  0  0  0  0  0  0  0  0  0  0  0
   -3.0847   -0.2632   -0.4327 O   0  0  0  0  0  0  0  0  0  0  0  0
   -1.0992   -1.2666   -0.2540 N   0  0  0  0  0  0  0  0  0  0  0  0
   -1.7206   -2.5762   -0.4415 C   0  0  0  0  0  0  0  0  0  0  0  0
   -2.1461    2.2894   -0.1030 C   0  0  0  0  0  0  0  0  0  0  0  0
    3.4190    1.3541   -0.5078 H   0  0  0  0  0  0  0  0  0  0  0  0
    3.9057    0.6629    1.1239 H   0  0  0  0  0  0  0  0  0  0  0  0
    2.5435    1.8642    0.9493 H   0  0  0  0  0  0  0  0  0  0  0  0
    3.4061   -1.8453    0.2889 H   0  0  0  0  0  0  0  0  0  0  0  0
   -1.5476   -3.1481    0.5063 H   0  0  0  0  0  0  0  0  0  0  0  0
   -1.2918   -3.1013   -1.3018 H   0  0  0  0  0  0  0  0  0  0  0  0
   -2.8238   -2.4092   -0.5394 H   0  0  0  0  0  0  0  0  0  0  0  0
   -1.7069    3.0474   -0.7537 H   0  0  0  0  0  0  0  0  0  0  0  0
   -3.1763    1.9886   -0.3400 H   0  0  0  0  0  0  0  0  0  0  0  0
   -2.1694    2.7460    0.9301 H   0  0  0  0  0  0  0  0  0  0  0  0
  1  2  1  0
  2  3  1  0
  3  4  2  0
  4  5  1  0
  5  6  2  0
  6  7  1  0
  7  8  2  0
  7  9  1  0
  9 10  1  0
 10 11  2  0
 10 12  1  0
 12 13  1  0
  9 14  1  0
  6  2  1  0
 12  5  1  0
  1 15  1  0
  1 16  1  0
  1 17  1  0
  3 18  1  0
 13 19  1  0
 13 20  1  0
 13 21  1  0
 14 22  1  0
 14 23  1  0
 14 24  1  0
M  END
$$$$
caffeine_torsional_diffusion_conf_9
     RDKit          3D

 24 25  0  0  0  0  0  0  0  0999 V2000
    2.9922   -1.3783   -0.2105 C   0  0  0  0  0  0  0  0  0  0  0  0
    2.1191   -0.2250   -0.1305 N   0  0  0  0  0  0  0  0  0  0  0  0
    2.5877    1.0437   -0.1242 C   0  0  0  0  0  0  0  0  0  0  0  0
    1.4929    1.8246   -0.0413 N   0  0  0  0  0  0  0  0  0  0  0  0
    0.3811    1.0695    0.0025 C   0  0  0  0  0  0  0  0  0  0  0  0
    0.7930   -0.2488   -0.0554 C   0  0  0  0  0  0  0  0  0  0  0  0
   -0.1822   -1.2197   -0.0250 C   0  0  0  0  0  0  0  0  0  0  0  0
    0.1790   -2.4175   -0.0769 O   0  0  0  0  0  0  0  0  0  0  0  0
   -1.4985   -0.8906    0.0587 N   0  0  0  0  0  0  0  0  0  0  0  0
   -1.8685    0.4150    0.1140 C   0  0  0  0  0  0  0  0  0  0  0  0
   -3.1064    0.7155    0.1925 O   0  0  0  0  0  0  0  0  0  0  0  0
   -0.9277    1.3723    0.0852 N   0  0  0  0  0  0  0  0  0  0  0  0
   -1.3249    2.7749    0.1445 C   0  0  0  0  0  0  0  0  0  0  0  0
   -2.4601   -1.9619    0.0857 C   0  0  0  0  0  0  0  0  0  0  0  0
    2.9281   -2.0396    0.6490 H   0  0  0  0  0  0  0  0  0  0  0  0
    4.0656   -1.0588   -0.3438 H   0  0  0  0  0  0  0  0  0  0  0  0
    2.7562   -1.8982   -1.1827 H   0  0  0  0  0  0  0  0  0  0  0  0
    3.6184    1.3527   -0.1750 H   0  0  0  0  0  0  0  0  0  0  0  0
   -0.7292    3.3096    0.9354 H   0  0  0  0  0  0  0  0  0  0  0  0
   -2.3903    2.8950    0.4328 H   0  0  0  0  0  0  0  0  0  0  0  0
   -1.1426    3.2786   -0.8049 H   0  0  0  0  0  0  0  0  0  0  0  0
   -2.3314   -2.4866    1.0679 H   0  0  0  0  0  0  0  0  0  0  0  0
   -2.3283   -2.7118   -0.7283 H   0  0  0  0  0  0  0  0  0  0  0  0
   -3.5030   -1.6416    0.0288 H   0  0  0  0  0  0  0  0  0  0  0  0
  1  2  1  0
  2  3  1  0
  3  4  2  0
  4  5  1  0
  5  6  2  0
  6  7  1  0
  7  8  2  0
  7  9  1  0
  9 10  1  0
 10 11  2  0
 10 12  1  0
 12 13  1  0
  9 14  1  0
  6  2  1  0
 12  5  1  0
  1 15  1  0
  1 16  1  0
  1 17  1  0
  3 18  1  0
 13 19  1  0
 13 20  1  0
 13 21  1  0
 14 22  1  0
 14 23  1  0
 14 24  1  0
M  END
$$$$
