caffeine_GeoDiff_conf_0
     RDKit          3D

 24 25  0  0  0  0  0  0  0  0999 V2000
   -2.1472   -2.4419   -0.7350 C   0  0  0  0  0  0  0  0  0  0  0  0
   -1.8454   -1.0845   -0.4975 N   0  0  0  0  0  0  0  0  0  0  0  0
   -2.6000   -0.0011   -0.8249 C   0  0  0  0  0  0  0  0  0  0  0  0
   -1.9132    1.1312   -0.7302 N   0  0  0  0  0  0  0  0  0  0  0  0
   -0.6756    0.8051   -0.3422 C   0  0  0  0  0  0  0  0  0  0  0  0
   -0.6010   -0.5679   -0.1733 C   0  0  0  0  0  0  0  0  0  0  0  0
    0.5537   -1.1723    0.3083 C   0  0  0  0  0  0  0  0  0  0  0  0
    0.7325   -2.3807    0.3393 O   0  0  0  0  0  0  0  0  0  0  0  0
    1.4955   -0.2473    0.7619 N   0  0  0  0  0  0  0  0  0  0  0  0
    1.2975    1.1303    0.8324 C   0  0  0  0  0  0  0  0  0  0  0  0
    1.9830    1.8733    1.4739 O   0  0  0  0  0  0  0  0  0  0  0  0
    0.3033    1.6260   -0.0163 N   0  0  0  0  0  0  0  0  0  0  0  0
    0.3845    2.9907   -0.4800 C   0  0  0  0  0  0  0  0  0  0  0  0
    2.7998   -0.6941    1.1933 C   0  0  0  0  0  0  0  0  0  0  0  0
   -1.3278   -3.0651   -0.3472 H   0  0  0  0  0  0  0  0  0  0  0  0
   -3.0524   -2.7331   -0.2014 H   0  0  0  0  0  0  0  0  0  0  0  0
   -2.2667   -2.6680   -1.8024 H   0  0  0  0  0  0  0  0  0  0  0  0
   -3.6657   -0.0343   -0.8797 H   0  0  0  0  0  0  0  0  0  0  0  0
   -0.5776    3.4884   -0.2061 H   0  0  0  0  0  0  0  0  0  0  0  0
    1.2189    3.4950   -0.0022 H   0  0  0  0  0  0  0  0  0  0  0  0
    0.5133    3.0153   -1.5576 H   0  0  0  0  0  0  0  0  0  0  0  0
    3.5923   -0.3394    0.5138 H   0  0  0  0  0  0  0  0  0  0  0  0
    3.0135   -0.3452    2.2050 H   0  0  0  0  0  0  0  0  0  0  0  0
    2.7847   -1.7804    1.1680 H   0  0  0  0  0  0  0  0  0  0  0  0
  1  2  1  0
  2  3  1  0
  3  4  2  0
  4  5  1  0
  5  6  2  0
  6  7  1  0
  7  8  2  0
  7  9  1  0
  9 10  1  0
 10 11  2  0
 10 12  1  0
 12 13  1  0
  9 14  1  0
  6  2  1  0
 12  5  1  0
  1 15  1  0
  1 16  1  0
  1 17  1  0
  3 18  1  0
 13 19  1  0
 13 20  1  0
 13 21  1  0
 14 22  1  0
 14 23  1  0
 14 24  1  0
M  END
$$$$
caffeine_GeoDiff_conf_1
     RDKit          3D

 24 25  0  0  0  0  0  0  0  0999 V2000
   -2.0377    0.7310   -2.5068 C   0  0  0  0  0  0  0  0  0  0  0  0
   -1.0422   -0.0826   -1.8868 N   0  0  0  0  0  0  0  0  0  0  0  0
   -0.2327   -1.0024   -2.4767 C   0  0  0  0  0  0  0  0  0  0  0  0
    0.8176   -1.3226   -1.7351 N   0  0  0  0  0  0  0  0  0  0  0  0
    0.7291   -0.5785   -0.6094 C   0  0  0  0  0  0  0  0  0  0  0  0
   -0.3978    0.2326   -0.7104 C   0  0  0  0  0  0  0  0  0  0  0  0
   -0.7230    1.0635    0.3507 C   0  0  0  0  0  0  0  0  0  0  0  0
   -1.4646    2.0391    0.2723 O   0  0  0  0  0  0  0  0  0  0  0  0
   -0.2367    0.5733    1.5682 N   0  0  0  0  0  0  0  0  0  0  0  0
    0.8841   -0.2468    1.6840 C   0  0  0  0  0  0  0  0  0  0  0  0
    1.3872   -0.5051    2.7412 O   0  0  0  0  0  0  0  0  0  0  0  0
    1.4133   -0.7468    0.4930 N   0  0  0  0  0  0  0  0  0  0  0  0
    2.5954   -1.5719    0.5568 C   0  0  0  0  0  0  0  0  0  0  0  0
   -0.6991    1.1769    2.7893 C   0  0  0  0  0  0  0  0  0  0  0  0
   -1.8424    1.7939   -2.3148 H   0  0  0  0  0  0  0  0  0  0  0  0
   -2.0361    0.5771   -3.5810 H   0  0  0  0  0  0  0  0  0  0  0  0
   -3.0101    0.4611   -2.1039 H   0  0  0  0  0  0  0  0  0  0  0  0
   -0.3352   -1.3053   -3.4996 H   0  0  0  0  0  0  0  0  0  0  0  0
    2.8991   -1.7125    1.5869 H   0  0  0  0  0  0  0  0  0  0  0  0
    3.4058   -1.1067   -0.0086 H   0  0  0  0  0  0  0  0  0  0  0  0
    2.3802   -2.5561    0.1095 H   0  0  0  0  0  0  0  0  0  0  0  0
   -1.0678    2.1891    2.5368 H   0  0  0  0  0  0  0  0  0  0  0  0
    0.1200    1.2925    3.5002 H   0  0  0  0  0  0  0  0  0  0  0  0
   -1.5064    0.6070    3.2442 H   0  0  0  0  0  0  0  0  0  0  0  0
  1  2  1  0
  2  3  1  0
  3  4  2  0
  4  5  1  0
  5  6  2  0
  6  7  1  0
  7  8  2  0
  7  9  1  0
  9 10  1  0
 10 11  2  0
 10 12  1  0
 12 13  1  0
  9 14  1  0
  6  2  1  0
 12  5  1  0
  1 15  1  0
  1 16  1  0
  1 17  1  0
  3 18  1  0
 13 19  1  0
 13 20  1  0
 13 21  1  0
 14 22  1  0
 14 23  1  0
 14 24  1  0
M  END
$$$$
caffeine_GeoDiff_conf_2
     RDKit          3D

 24 25  0  0  0  0  0  0  0  0999 V2000
   -0.1981    1.2271    3.0831 C   0  0  0  0  0  0  0  0  0  0  0  0
   -0.5010    0.2467    2.0982 N   0  0  0  0  0  0  0  0  0  0  0  0
   -0.7290   -1.0673    2.3333 C   0  0  0  0  0  0  0  0  0  0  0  0
   -0.4413   -1.8521    1.2983 N   0  0  0  0  0  0  0  0  0  0  0  0
   -0.0413   -1.0272    0.3096 C   0  0  0  0  0  0  0  0  0  0  0  0
   -0.0023    0.2669    0.7991 C   0  0  0  0  0  0  0  0  0  0  0  0
    0.3564    1.2967   -0.0601 C   0  0  0  0  0  0  0  0  0  0  0  0
    0.7499    2.3945    0.3056 O   0  0  0  0  0  0  0  0  0  0  0  0
    0.1191    0.9561   -1.3978 N   0  0  0  0  0  0  0  0  0  0  0  0
    0.2284   -0.3494   -1.8872 C   0  0  0  0  0  0  0  0  0  0  0  0
    0.2445   -0.5794   -3.0643 O   0  0  0  0  0  0  0  0  0  0  0  0
    0.2288   -1.3594   -0.9398 N   0  0  0  0  0  0  0  0  0  0  0  0
    0.1907   -2.7399   -1.3777 C   0  0  0  0  0  0  0  0  0  0  0  0
    0.1663    1.9955   -2.3976 C   0  0  0  0  0  0  0  0  0  0  0  0
    0.3894    0.8101    3.9119 H   0  0  0  0  0  0  0  0  0  0  0  0
    0.3744    2.0462    2.6294 H   0  0  0  0  0  0  0  0  0  0  0  0
   -1.1299    1.6279    3.4847 H   0  0  0  0  0  0  0  0  0  0  0  0
   -1.1222   -1.4610    3.2443 H   0  0  0  0  0  0  0  0  0  0  0  0
    1.0668   -3.2576   -0.9831 H   0  0  0  0  0  0  0  0  0  0  0  0
   -0.7156   -3.2251   -0.9930 H   0  0  0  0  0  0  0  0  0  0  0  0
    0.1859   -2.7852   -2.4624 H   0  0  0  0  0  0  0  0  0  0  0  0
    0.7833    1.6920   -3.2526 H   0  0  0  0  0  0  0  0  0  0  0  0
    0.6358    2.8842   -1.9467 H   0  0  0  0  0  0  0  0  0  0  0  0
   -0.8390    2.2597   -2.7354 H   0  0  0  0  0  0  0  0  0  0  0  0
  1  2  1  0
  2  3  1  0
  3  4  2  0
  4  5  1  0
  5  6  2  0
  6  7  1  0
  7  8  2  0
  7  9  1  0
  9 10  1  0
 10 11  2  0
 10 12  1  0
 12 13  1  0
  9 14  1  0
  6  2  1  0
 12  5  1  0
  1 15  1  0
  1 16  1  0
  1 17  1  0
  3 18  1  0
 13 19  1  0
 13 20  1  0
 13 21  1  0
 14 22  1  0
 14 23  1  0
 14 24  1  0
M  END
$$$$
caffeine_GeoDiff_conf_3
     RDKit          3D

 24 25  0  0  0  0  0  0  0  0999 V2000
    1.3097    1.7428    2.5019 C   0  0  0  0  0  0  0  0  0  0  0  0
    1.4413    0.8966    1.3652 N   0  0  0  0  0  0  0  0  0  0  0  0
    2.4128   -0.0355    1.1661 C   0  0  0  0  0  0  0  0  0  0  0  0
    2.0292   -1.0445    0.3863 N   0  0  0  0  0  0  0  0  0  0  0  0
    0.7674   -0.7593    0.0094 C   0  0  0  0  0  0  0  0  0  0  0  0
    0.3649    0.4200    0.6405 C   0  0  0  0  0  0  0  0  0  0  0  0
   -0.9205    0.9043    0.4230 C   0  0  0  0  0  0  0  0  0  0  0  0
   -1.5335    1.6722    1.1495 O   0  0  0  0  0  0  0  0  0  0  0  0
   -1.4630    0.3858   -0.7577 N   0  0  0  0  0  0  0  0  0  0  0  0
   -1.2243   -0.9361   -1.1600 C   0  0  0  0  0  0  0  0  0  0  0  0
   -2.0598   -1.6109   -1.6952 O   0  0  0  0  0  0  0  0  0  0  0  0
    0.0755   -1.3675   -0.9347 N   0  0  0  0  0  0  0  0  0  0  0  0
    0.5523   -2.5520   -1.6131 C   0  0  0  0  0  0  0  0  0  0  0  0
   -2.5194    1.0857   -1.4303 C   0  0  0  0  0  0  0  0  0  0  0  0
    2.2721    2.0794    2.8416 H   0  0  0  0  0  0  0  0  0  0  0  0
    0.6934    2.6018    2.2227 H   0  0  0  0  0  0  0  0  0  0  0  0
    0.8242    1.2244    3.3644 H   0  0  0  0  0  0  0  0  0  0  0  0
    3.4022    0.0457    1.5830 H   0  0  0  0  0  0  0  0  0  0  0  0
    1.1906   -2.2614   -2.4599 H   0  0  0  0  0  0  0  0  0  0  0  0
   -0.2956   -3.1386   -1.9758 H   0  0  0  0  0  0  0  0  0  0  0  0
    1.1081   -3.1454   -0.8905 H   0  0  0  0  0  0  0  0  0  0  0  0
   -3.0996    1.6287   -0.6641 H   0  0  0  0  0  0  0  0  0  0  0  0
   -3.1921    0.3760   -1.9061 H   0  0  0  0  0  0  0  0  0  0  0  0
   -2.1361    1.7875   -2.1662 H   0  0  0  0  0  0  0  0  0  0  0  0
  1  2  1  0
  2  3  1  0
  3  4  2  0
  4  5  1  0
  5  6  2  0
  6  7  1  0
  7  8  2  0
  7  9  1  0
  9 10  1  0
 10 11  2  0
 10 12  1  0
 12 13  1  0
  9 14  1  0
  6  2  1  0
 12  5  1  0
  1 15  1  0
  1 16  1  0
  1 17  1  0
  3 18  1  0
 13 19  1  0
 13 20  1  0
 13 21  1  0
 14 22  1  0
 14 23  1  0
 14 24  1  0
M  END
$$$$
caffeine_GeoDiff_conf_4
     RDKit          3D

 24 25  0  0  0  0  0  0  0  0999 V2000
   -1.4378    2.8716   -0.8839 C   0  0  0  0  0  0  0  0  0  0  0  0
   -0.3852    2.1272   -0.3044 N   0  0  0  0  0  0  0  0  0  0  0  0
    0.7997    2.5689    0.1710 C   0  0  0  0  0  0  0  0  0  0  0  0
    1.5882    1.5797    0.5867 N   0  0  0  0  0  0  0  0  0  0  0  0
    0.8993    0.4578    0.4082 C   0  0  0  0  0  0  0  0  0  0  0  0
   -0.3381    0.7547   -0.1654 C   0  0  0  0  0  0  0  0  0  0  0  0
   -1.2987   -0.2332   -0.3388 C   0  0  0  0  0  0  0  0  0  0  0  0
   -2.4719   -0.0232   -0.5935 O   0  0  0  0  0  0  0  0  0  0  0  0
   -0.7651   -1.5135   -0.1505 N   0  0  0  0  0  0  0  0  0  0  0  0
    0.3780   -1.7788    0.6057 C   0  0  0  0  0  0  0  0  0  0  0  0
    0.5391   -2.8046    1.2168 O   0  0  0  0  0  0  0  0  0  0  0  0
    1.3447   -0.7791    0.5766 N   0  0  0  0  0  0  0  0  0  0  0  0
    2.6990   -1.0543    0.9949 C   0  0  0  0  0  0  0  0  0  0  0  0
   -1.4861   -2.6822   -0.5756 C   0  0  0  0  0  0  0  0  0  0  0  0
   -2.2700    2.9825   -0.1799 H   0  0  0  0  0  0  0  0  0  0  0  0
   -1.0811    3.8525   -1.1861 H   0  0  0  0  0  0  0  0  0  0  0  0
   -1.8216    2.3594   -1.7780 H   0  0  0  0  0  0  0  0  0  0  0  0
    1.0675    3.5949    0.3158 H   0  0  0  0  0  0  0  0  0  0  0  0
    3.3467   -1.0843    0.1234 H   0  0  0  0  0  0  0  0  0  0  0  0
    2.7182   -2.0040    1.5255 H   0  0  0  0  0  0  0  0  0  0  0  0
    3.0270   -0.2538    1.6738 H   0  0  0  0  0  0  0  0  0  0  0  0
   -1.5760   -3.3979    0.2525 H   0  0  0  0  0  0  0  0  0  0  0  0
   -0.9949   -3.1710   -1.4300 H   0  0  0  0  0  0  0  0  0  0  0  0
   -2.4808   -2.3693   -0.8647 H   0  0  0  0  0  0  0  0  0  0  0  0
  1  2  1  0
  2  3  1  0
  3  4  2  0
  4  5  1  0
  5  6  2  0
  6  7  1  0
  7  8  2  0
  7  9  1  0
  9 10  1  0
 10 11  2  0
 10 12  1  0
 12 13  1  0
  9 14  1  0
  6  2  1  0
 12  5  1  0
  1 15  1  0
  1 16  1  0
  1 17  1  0
  3 18  1  0
 13 19  1  0
 13 20  1  0
 13 21  1  0
 14 22  1  0
 14 23  1  0
 14 24  1  0
M  END
$$$$
caffeine_GeoDiff_conf_5
     RDKit          3D

 24 25  0  0  0  0  0  0  0  0999 V2000
   -1.5855   -0.5623   -2.8633 C   0  0  0  0  0  0  0  0  0  0  0  0
   -0.7778   -0.9950   -1.7810 N   0  0  0  0  0  0  0  0  0  0  0  0
   -0.5628   -2.2708   -1.3705 C   0  0  0  0  0  0  0  0  0  0  0  0
   -0.0045   -2.3359   -0.1623 N   0  0  0  0  0  0  0  0  0  0  0  0
    0.0611   -1.0730    0.2841 C   0  0  0  0  0  0  0  0  0  0  0  0
   -0.4265   -0.2181   -0.6934 C   0  0  0  0  0  0  0  0  0  0  0  0
   -0.3829    1.1628   -0.5153 C   0  0  0  0  0  0  0  0  0  0  0  0
   -1.0258    1.9605   -1.1787 O   0  0  0  0  0  0  0  0  0  0  0  0
    0.3835    1.5454    0.5889 N   0  0  0  0  0  0  0  0  0  0  0  0
    1.1127    0.6713    1.3843 C   0  0  0  0  0  0  0  0  0  0  0  0
    2.0023    1.0230    2.1082 O   0  0  0  0  0  0  0  0  0  0  0  0
    0.6759   -0.6541    1.3741 N   0  0  0  0  0  0  0  0  0  0  0  0
    1.0543   -1.5268    2.4557 C   0  0  0  0  0  0  0  0  0  0  0  0
    0.5623    2.9546    0.8357 C   0  0  0  0  0  0  0  0  0  0  0  0
   -0.9342   -0.1896   -3.6629 H   0  0  0  0  0  0  0  0  0  0  0  0
   -2.2374    0.2619   -2.5485 H   0  0  0  0  0  0  0  0  0  0  0  0
   -2.2156   -1.3633   -3.2441 H   0  0  0  0  0  0  0  0  0  0  0  0
   -0.9862   -3.1370   -1.8494 H   0  0  0  0  0  0  0  0  0  0  0  0
    1.5871   -2.3968    2.0555 H   0  0  0  0  0  0  0  0  0  0  0  0
    0.1587   -1.8551    2.9897 H   0  0  0  0  0  0  0  0  0  0  0  0
    1.6993   -0.9781    3.1547 H   0  0  0  0  0  0  0  0  0  0  0  0
    1.6023    3.1672    1.0987 H   0  0  0  0  0  0  0  0  0  0  0  0
   -0.0998    3.3179    1.6306 H   0  0  0  0  0  0  0  0  0  0  0  0
    0.3393    3.4913   -0.0909 H   0  0  0  0  0  0  0  0  0  0  0  0
  1  2  1  0
  2  3  1  0
  3  4  2  0
  4  5  1  0
  5  6  2  0
  6  7  1  0
  7  8  2  0
  7  9  1  0
  9 10  1  0
 10 11  2  0
 10 12  1  0
 12 13  1  0
  9 14  1  0
  6  2  1  0
 12  5  1  0
  1 15  1  0
  1 16  1  0
  1 17  1  0
  3 18  1  0
 13 19  1  0
 13 20  1  0
 13 21  1  0
 14 22  1  0
 14 23  1  0
 14 24  1  0
M  END
$$$$
caffeine_GeoDiff_conf_6
     RDKit          3D

 24 25  0  0  0  0  0  0  0  0999 V2000
   -1.7544    0.1356    2.8310 C   0  0  0  0  0  0  0  0  0  0  0  0
   -1.2412   -0.5797    1.7181 N   0  0  0  0  0  0  0  0  0  0  0  0
   -1.7597   -1.6954    1.1481 C   0  0  0  0  0  0  0  0  0  0  0  0
   -1.3886   -1.8682   -0.1168 N   0  0  0  0  0  0  0  0  0  0  0  0
   -0.5494   -0.8513   -0.3939 C   0  0  0  0  0  0  0  0  0  0  0  0
   -0.4476   -0.0310    0.7286 C   0  0  0  0  0  0  0  0  0  0  0  0
    0.3203    1.1287    0.6833 C   0  0  0  0  0  0  0  0  0  0  0  0
    0.3582    1.9748    1.5635 O   0  0  0  0  0  0  0  0  0  0  0  0
    1.1022    1.2049   -0.4653 N   0  0  0  0  0  0  0  0  0  0  0  0
    0.7974    0.5354   -1.6548 C   0  0  0  0  0  0  0  0  0  0  0  0
    1.1627    0.9276   -2.7313 O   0  0  0  0  0  0  0  0  0  0  0  0
    0.1092   -0.6645   -1.5191 N   0  0  0  0  0  0  0  0  0  0  0  0
    0.3117   -1.7043   -2.4993 C   0  0  0  0  0  0  0  0  0  0  0  0
    2.3084    2.0015   -0.5058 C   0  0  0  0  0  0  0  0  0  0  0  0
   -0.9738    0.8308    3.1833 H   0  0  0  0  0  0  0  0  0  0  0  0
   -2.6506    0.7028    2.6029 H   0  0  0  0  0  0  0  0  0  0  0  0
   -1.9582   -0.5528    3.6539 H   0  0  0  0  0  0  0  0  0  0  0  0
   -2.5193   -2.2954    1.6246 H   0  0  0  0  0  0  0  0  0  0  0  0
    0.4297   -1.2199   -3.4939 H   0  0  0  0  0  0  0  0  0  0  0  0
    1.1512   -2.3426   -2.2772 H   0  0  0  0  0  0  0  0  0  0  0  0
   -0.6159   -2.2849   -2.5443 H   0  0  0  0  0  0  0  0  0  0  0  0
    2.1726    2.8318   -1.2235 H   0  0  0  0  0  0  0  0  0  0  0  0
    2.4605    2.4047    0.4931 H   0  0  0  0  0  0  0  0  0  0  0  0
    3.1748    1.4114   -0.8050 H   0  0  0  0  0  0  0  0  0  0  0  0
  1  2  1  0
  2  3  1  0
  3  4  2  0
  4  5  1  0
  5  6  2  0
  6  7  1  0
  7  8  2  0
  7  9  1  0
  9 10  1  0
 10 11  2  0
 10 12  1  0
 12 13  1  0
  9 14  1  0
  6  2  1  0
 12  5  1  0
  1 15  1  0
  1 16  1  0
  1 17  1  0
  3 18  1  0
 13 19  1  0
 13 20  1  0
 13 21  1  0
 14 22  1  0
 14 23  1  0
 14 24  1  0
M  END
$$$$
caffeine_GeoDiff_conf_7
     RDKit          3D

 24 25  0  0  0  0  0  0  0  0999 V2000
   -2.3506    2.3577   -0.1574 C   0  0  0  0  0  0  0  0  0  0  0  0
   -1.6794    1.3025    0.5179 N   0  0  0  0  0  0  0  0  0  0  0  0
   -1.5683    1.1503    1.8655 C   0  0  0  0  0  0  0  0  0  0  0  0
   -0.6493    0.2684    2.2097 N   0  0  0  0  0  0  0  0  0  0  0  0
   -0.0652   -0.1294    1.0678 C   0  0  0  0  0  0  0  0  0  0  0  0
   -0.6335    0.5627    0.0017 C   0  0  0  0  0  0  0  0  0  0  0  0
   -0.0856    0.4586   -1.2769 C   0  0  0  0  0  0  0  0  0  0  0  0
   -0.3531    1.2003   -2.2055 O   0  0  0  0  0  0  0  0  0  0  0  0
    0.7796   -0.6318   -1.3883 N   0  0  0  0  0  0  0  0  0  0  0  0
    1.2207   -1.4310   -0.3358 C   0  0  0  0  0  0  0  0  0  0  0  0
    1.8760   -2.4270   -0.5264 O   0  0  0  0  0  0  0  0  0  0  0  0
    0.8584   -1.0493    0.9415 N   0  0  0  0  0  0  0  0  0  0  0  0
    1.3919   -1.7641    2.0874 C   0  0  0  0  0  0  0  0  0  0  0  0
    1.4738   -0.8638   -2.6379 C   0  0  0  0  0  0  0  0  0  0  0  0
   -1.7510    2.6957   -1.0081 H   0  0  0  0  0  0  0  0  0  0  0  0
   -2.5241    3.2106    0.5113 H   0  0  0  0  0  0  0  0  0  0  0  0
   -3.3165    1.9843   -0.5159 H   0  0  0  0  0  0  0  0  0  0  0  0
   -2.1777    1.6577    2.5797 H   0  0  0  0  0  0  0  0  0  0  0  0
    0.6048   -2.3199    2.5973 H   0  0  0  0  0  0  0  0  0  0  0  0
    2.1747   -2.4532    1.7574 H   0  0  0  0  0  0  0  0  0  0  0  0
    1.8242   -1.0209    2.7770 H   0  0  0  0  0  0  0  0  0  0  0  0
    1.2327   -0.0497   -3.3110 H   0  0  0  0  0  0  0  0  0  0  0  0
    1.1526   -1.8227   -3.0672 H   0  0  0  0  0  0  0  0  0  0  0  0
    2.5650   -0.8859   -2.4839 H   0  0  0  0  0  0  0  0  0  0  0  0
  1  2  1  0
  2  3  1  0
  3  4  2  0
  4  5  1  0
  5  6  2  0
  6  7  1  0
  7  8  2  0
  7  9  1  0
  9 10  1  0
 10 11  2  0
 10 12  1  0
 12 13  1  0
  9 14  1  0
  6  2  1  0
 12  5  1  0
  1 15  1  0
  1 16  1  0
  1 17  1  0
  3 18  1  0
 13 19  1  0
 13 20  1  0
 13 21  1  0
 14 22  1  0
 14 23  1  0
 14 24  1  0
M  END
$$$$
caffeine_GeoDiff_conf_8
     RDKit          3D

 24 25  0  0  0  0  0  0  0  0999 V2000
   -2.4749   -0.0400   -2.1982 C   0  0  0  0  0  0  0  0  0  0  0  0
   -1.1699   -0.4225   -1.7654 N   0  0  0  0  0  0  0  0  0  0  0  0
   -0.4326   -1.4876   -2.1797 C   0  0  0  0  0  0  0  0  0  0  0  0
    0.5778   -1.7786   -1.3732 N   0  0  0  0  0  0  0  0  0  0  0  0
    0.4642   -0.9350   -0.3278 C   0  0  0  0  0  0  0  0  0  0  0  0
   -0.6364   -0.1093   -0.5329 C   0  0  0  0  0  0  0  0  0  0  0  0
   -0.9721    0.8350    0.4315 C   0  0  0  0  0  0  0  0  0  0  0  0
   -2.0550    1.3930    0.5355 O   0  0  0  0  0  0  0  0  0  0  0  0
    0.0897    1.1069    1.2917 N   0  0  0  0  0  0  0  0  0  0  0  0
    1.1012    0.1841    1.5928 C   0  0  0  0  0  0  0  0  0  0  0  0
    1.7759    0.3079    2.5788 O   0  0  0  0  0  0  0  0  0  0  0  0
    1.3209   -0.8034    0.6587 N   0  0  0  0  0  0  0  0  0  0  0  0
    2.5427   -1.5880    0.7252 C   0  0  0  0  0  0  0  0  0  0  0  0
    0.1239    2.3853    1.9598 C   0  0  0  0  0  0  0  0  0  0  0  0
   -2.5467    1.0530   -2.0994 H   0  0  0  0  0  0  0  0  0  0  0  0
   -2.6168   -0.2951   -3.2404 H   0  0  0  0  0  0  0  0  0  0  0  0
   -3.2645   -0.4995   -1.6060 H   0  0  0  0  0  0  0  0  0  0  0  0
   -0.6501   -2.0089   -3.0887 H   0  0  0  0  0  0  0  0  0  0  0  0
    3.0989   -1.4927   -0.2163 H   0  0  0  0  0  0  0  0  0  0  0  0
    2.2630   -2.6498    0.8546 H   0  0  0  0  0  0  0  0  0  0  0  0
    3.1318   -1.2677    1.5769 H   0  0  0  0  0  0  0  0  0  0  0  0
    0.2728    3.1935    1.2532 H   0  0  0  0  0  0  0  0  0  0  0  0
   -0.8565    2.5286    2.4682 H   0  0  0  0  0  0  0  0  0  0  0  0
    0.9126    2.3906    2.7010 H   0  0  0  0  0  0  0  0  0  0  0  0
  1  2  1  0
  2  3  1  0
  3  4  2  0
  4  5  1  0
  5  6  2  0
  6  7  1  0
  7  8  2  0
  7  9  1  0
  9 10  1  0
 10 11  2  0
 10 12  1  0
 12 13  1  0
  9 14  1  0
  6  2  1  0
 12  5  1  0
  1 15  1  0
  1 16  1  0
  1 17  1  0
  3 18  1  0
 13 19  1  0
 13 20  1  0
 13 21  1  0
 14 22  1  0
 14 23  1  0
 14 24  1  0
M  END
$$$$
caffeine_GeoDiff_conf_9
     RDKit          3D

 24 25  0  0  0  0  0  0  0  0999 V2000
    3.0026   -1.0325   -0.8984 C   0  0  0  0  0  0  0  0  0  0  0  0
    2.0499    0.0267   -0.7632 N   0  0  0  0  0  0  0  0  0  0  0  0
    2.3020    1.3158   -0.3897 C   0  0  0  0  0  0  0  0  0  0  0  0
    1.2986    1.8757    0.2644 N   0  0  0  0  0  0  0  0  0  0  0  0
    0.3523    0.9476    0.3809 C   0  0  0  0  0  0  0  0  0  0  0  0
    0.7763   -0.1989   -0.2610 C   0  0  0  0  0  0  0  0  0  0  0  0
   -0.0787   -1.3013   -0.3372 C   0  0  0  0  0  0  0  0  0  0  0  0
    0.2799   -2.4667   -0.4256 O   0  0  0  0  0  0  0  0  0  0  0  0
   -1.4260   -0.8945   -0.2393 N   0  0  0  0  0  0  0  0  0  0  0  0
   -1.8306    0.1687    0.5752 C   0  0  0  0  0  0  0  0  0  0  0  0
   -2.9502    0.2718    0.9939 O   0  0  0  0  0  0  0  0  0  0  0  0
   -0.8753    1.1309    0.8540 N   0  0  0  0  0  0  0  0  0  0  0  0
   -1.2748    2.3533    1.5021 C   0  0  0  0  0  0  0  0  0  0  0  0
   -2.4421   -1.8408   -0.6305 C   0  0  0  0  0  0  0  0  0  0  0  0
    2.8320   -1.4979   -1.8830 H   0  0  0  0  0  0  0  0  0  0  0  0
    4.0204   -0.6322   -0.8378 H   0  0  0  0  0  0  0  0  0  0  0  0
    2.9053   -1.7857   -0.1117 H   0  0  0  0  0  0  0  0  0  0  0  0
    3.2383    1.8028   -0.5796 H   0  0  0  0  0  0  0  0  0  0  0  0
   -2.3496    2.3906    1.6100 H   0  0  0  0  0  0  0  0  0  0  0  0
   -0.7790    2.4466    2.4677 H   0  0  0  0  0  0  0  0  0  0  0  0
   -0.9743    3.2061    0.8452 H   0  0  0  0  0  0  0  0  0  0  0  0
   -3.3095   -1.7491    0.0420 H   0  0  0  0  0  0  0  0  0  0  0  0
   -2.0233   -2.8531   -0.5171 H   0  0  0  0  0  0  0  0  0  0  0  0
   -2.7443   -1.6842   -1.6612 H   0  0  0  0  0  0  0  0  0  0  0  0
  1  2  1  0
  2  3  1  0
  3  4  2  0
  4  5  1  0
  5  6  2  0
  6  7  1  0
  7  8  2  0
  7  9  1  0
  9 10  1  0
 10 11  2  0
 10 12  1  0
 12 13  1  0
  9 14  1  0
  6  2  1  0
 12  5  1  0
  1 15  1  0
  1 16  1  0
  1 17  1  0
  3 18  1  0
 13 19  1  0
 13 20  1  0
 13 21  1  0
 14 22  1  0
 14 23  1  0
 14 24  1  0
M  END
$$$$
